<?xml version="1.0" encoding="UTF-8"?>

<!-- generated on 2024-10-16 14:47:17.608867 by routeSampler.py v1_19_0+0000-baa66a0f364
<configuration>
    <route-files value=".\sampleRoutes.rou.xml"/>
    <edgedata-files value=".\edgedata.xml"/>
    <output-file value="generatedRoutes.rou.xml"/>
    <total-count value="2800"/>
</configuration>
-->

<routes xmlns:xsi="http://www.w3.org/2001/XMLSchema-instance" xsi:noNamespaceSchemaLocation="http://sumo.dlr.de/xsd/routes_file.xsd">
<!-- begin="0.0" end="3600.0" -->
    <vehicle id="0" depart="0.87">
        <route edges="b1[0] ba1[1] b1[1] a72[0] a72[1] a69 a161 a122 a1b a1"/>
    </vehicle>
    <vehicle id="1" depart="0.87">
        <route edges="a210 a43[0] a43[1] a115 a110 a185 a92 a90 a171 a161 a122 a3"/>
    </vehicle>
    <vehicle id="2" depart="1.45">
        <route edges="b13[0] b13[1] b4[0] b4[1][1][0] b10"/>
    </vehicle>
    <vehicle id="3" depart="2.58">
        <route edges="b6 b100 b7 b3[1]"/>
    </vehicle>
    <vehicle id="4" depart="2.84">
        <route edges="a210 a43[0] a43[1] a115 a110 a185 a92 a90 am91 a88 a187 a190 a77[0] a53[1][0] a53[1][1][0] a77[1][0] a77ab a77bc a77cd a53cd a53[0] a78[1][1]"/>
    </vehicle>
    <vehicle id="5" depart="4.62">
        <route edges="b13[0] b13[1] b4[0] b4[1][1][0] b10"/>
    </vehicle>
    <vehicle id="6" depart="5.14">
        <route edges="a173 a58[0] a58[1] a66 a119 a116 a46 a201 a201c a204a[0] a124 b12 b56[0] b56[1][0] b56[1][1] b5[1][0]+66 b33"/>
    </vehicle>
    <vehicle id="7" depart="8.45">
        <route edges="b3[0] b9 b11[0] b11[1][1] b101 b35[0] b35[1][0] b50[0] b50[1] b50[1]a a181 a18 a69 a161 a194 a91 a186 a109[0] a109[1][0]+20003 a109[1][1] a120"/>
    </vehicle>
    <vehicle id="8" depart="13.16">
        <route edges="b13[0] b13[1] b4[0] b4[1][1][0] b10"/>
    </vehicle>
    <vehicle id="9" depart="13.79">
        <route edges="b63[0] b63[1] b4[0] b4[1][1][0] b9 b11[0] b11[1][1] b101 b35[0] b35[1][0] b35[1][1][0] b20000+35[1][1][1][0] b35[1][1][1][1] a203[1] a203[1]b a202 a34 a113 a209"/>
    </vehicle>
    <vehicle id="10" depart="14.11">
        <route edges="a203[0] b12 b50[0] b50[1] b50[1]a a181 a18 a17 a71 a67 a80 a127 a77[1][0] a77ab a77bc a77cd a53cd a82"/>
    </vehicle>
    <vehicle id="11" depart="19.26">
        <route edges="b29[0] b29[1] b4[1][1][0] b9 b11[0] b11[1][1] b101 b35[0] b35[1][0] b35[1][1][0] b20000+35[1][1][1][0] b35[1][1][1][1] a203[1] a203[1]b a202 a34 a134 a134b a133 a31"/>
    </vehicle>
    <vehicle id="12" depart="21.11">
        <route edges="a195 a61 a58[0] a58[1] a66 a119 a116 a46 a201 a4c"/>
    </vehicle>
    <vehicle id="13" depart="24.44">
        <route edges="b6 b100 b7 b3[1] b3[1]b"/>
    </vehicle>
    <vehicle id="14" depart="25.53">
        <route edges="a55 a55b a125 b12 b50[0] b50[1] b49[1] b55 b35[1][1][0] b20000+35[1][1][1][0] b35[1][1][1][1] a203[1] a203[1]b a202 a34 a113 a209"/>
    </vehicle>
    <vehicle id="15" depart="25.55">
        <route edges="a224[1] a181 a18 a69 a161 a122 a1b a1 a204a[0] a204b[0] a204[1][0] a204[1][1]"/>
    </vehicle>
    <vehicle id="16" depart="26.49">
        <route edges="a224[1] a181 a18 a69 a161 a122 a1b a1 a204a[0] a204b[0] a204[1][0] a204[1][1]"/>
    </vehicle>
    <vehicle id="17" depart="26.87">
        <route edges="a161 a122 a1b a1 a204a[0] a204b[0] a54"/>
    </vehicle>
    <vehicle id="18" depart="30.08">
        <route edges="b13[0] b13[1] b4[0] b4[1][1][0] b10"/>
    </vehicle>
    <vehicle id="19" depart="30.43">
        <route edges="b6 b100 b7 b3[1]"/>
    </vehicle>
    <vehicle id="20" depart="30.58">
        <route edges="a55 a55b a125 b12 b50[0] b50[1] b49[1] b55 b35[1][1][0] b20000+35[1][1][1][0] b35[1][1][1][1] a203[1] a203[1]b a202 a34 a113 a209"/>
    </vehicle>
    <vehicle id="21" depart="31.03">
        <route edges="a1b a1 a204a[0] a124 b12 b50[0] b50[1] b50[1]a a181 a18 a69 a161 a194 a91 a186 a109[0] a109[1][0]+20003 a109[1][1] a120"/>
    </vehicle>
    <vehicle id="22" depart="32.75">
        <route edges="a210 a43[0] a43[1] a115 a110 a185 a92 a90 am91 a88 a187 a190 a77[0] a53[1][0] a53[1][1][0] a77[1][0] a77[1][1]"/>
    </vehicle>
    <vehicle id="23" depart="33.00">
        <route edges="b13[0] b13[1] b4[0] b4[1][1][0] b10"/>
    </vehicle>
    <vehicle id="24" depart="33.12">
        <route edges="b6 b100 b7 b3[1]"/>
    </vehicle>
    <vehicle id="25" depart="33.52">
        <route edges="a224[1] a181 a18 a69 a161 a122 a1b a1 a204a[0] a204b[0] a204[1][0] a204[1][1]"/>
    </vehicle>
    <vehicle id="26" depart="35.38">
        <route edges="b3[0] b9 b11[0] b11[1][1] b101 b35[0] b35[1][0] b50[0] b50[1] b50[1]a a181 a18 a69 a161 a194 a91 a186 a109[0] a109[1][0]+20003 a109[1][1] a120"/>
    </vehicle>
    <vehicle id="27" depart="35.89">
        <route edges="b3[0] b9 b11[0] b11[1][1] b101 b35[0] b35[1][0] b50[0] b50[1] b50[1]a a181 a18 a69 a161 a194 a91 a186 a109[0] a109[1][0]+20003 a109[1][1] a120"/>
    </vehicle>
    <vehicle id="28" depart="36.17">
        <route edges="b47 b38[1][0] b38[1][1] b38[1][1]a b56[1][0] b56[1][1] b5[1][0]+66 b33"/>
    </vehicle>
    <vehicle id="29" depart="42.41">
        <route edges="b35[1][0] b35[1][1][0] b20000+35[1][1][1][0] b35[1][1][1][1] a203[1] a203[1]b a202 a34 a134 a134b a133 a31 a115 a110 a185 a92 a90"/>
    </vehicle>
    <vehicle id="30" depart="45.96">
        <route edges="a133 a31 a115 a110 a185 a92 a90 am91 a88 a187 a191 a17 a71 b2[0] b2[1][0] b24"/>
    </vehicle>
    <vehicle id="31" depart="46.16">
        <route edges="b7 b3[1] b3[1]b"/>
    </vehicle>
    <vehicle id="32" depart="46.84">
        <route edges="a171 a161 a122 a1b a1 a204a[0] a124 b12 b56[0] b56[1][0] b56[1][1] b5[1][0]+66 b5[1][1][1] b8"/>
    </vehicle>
    <vehicle id="33" depart="47.81">
        <route edges="a203[0] b12 b56[0] b56[1][0] b56[1][1] b5[1][0]+66 b5[1][1][1] b8 b3[1] b3[1]b"/>
    </vehicle>
    <vehicle id="34" depart="49.10">
        <route edges="b47 b38[1][0] b38[1][1] b38[1][1]a b56[1][0] b56[1][1] b5[1][0]+66 b33"/>
    </vehicle>
    <vehicle id="35" depart="50.45">
        <route edges="b22[0] b22[1] ba1[1] b1[1] a72[0] a72[1] a69 a161 a122 a1b a1"/>
    </vehicle>
    <vehicle id="36" depart="53.48">
        <route edges="a109[0] a109[1][0]+20003 a109[1][1] a116 a46 a201 a201c a204a[0] a124 b12 b50[0] b50[1] b50[1]a"/>
    </vehicle>
    <vehicle id="37" depart="58.05">
        <route edges="b63[1] b4[0] b4[1][1][0] b9 b11[0] b11[1][1] b101 b35[0] b35[1][0] b35[1][1][0] b20000+35[1][1][1][0] b35[1][1][1][1] a203[1] a203[1]b a202 a34 a113 a209"/>
    </vehicle>
    <vehicle id="38" depart="60.02">
        <route edges="b22[0] b22[1] b25 b23 b17[0] b17[1] b8 b10"/>
    </vehicle>
    <vehicle id="39" depart="60.89">
        <route edges="a42 a39 a35 a38 a15 a24 a22 a59 a53cd a53[0] a53[1][0] a79 a68 a11 b38[0] b38[0]a b38[1][0] b38[1][1] b38[1][1]a b56[1][0] b56[1][1] b5[1][0]+66 b5[1][1][1] b8 b10"/>
    </vehicle>
    <vehicle id="40" depart="61.09">
        <route edges="a72[0] a72[1] a69 a161 a122 a1b a1 a204a[0] a124 b12 b50[0] b50[1] b49[1] b55 b35[1][1][0] b20000+35[1][1][1][0] b35[1][1][1][1]"/>
    </vehicle>
    <vehicle id="41" depart="62.99">
        <route edges="a203[0] b12 b50[0] b50[1] b50[1]a a181 a18 a17 a71 a67 a80 a127 a77[1][0] a77ab a77bc a21a a21b a103 a49"/>
    </vehicle>
    <vehicle id="42" depart="64.90">
        <route edges="bm66a bm66b b5[1][1][1] b8 b3[1]"/>
    </vehicle>
    <vehicle id="43" depart="65.09">
        <route edges="b45 b2[0] b2[1][0] b24 b23 b17[0] b17[1] b8 b3[1] b3[1]b"/>
    </vehicle>
    <vehicle id="44" depart="66.09">
        <route edges="a203[0] b12 b56[0] b56[1][0] b56[1][1] b5[1][0]+66 b5[1][1][1] b8 b3[1] b3[1]b"/>
    </vehicle>
    <vehicle id="45" depart="69.84">
        <route edges="b13[0] b13[1] b4[0] b4[1][1][0] b10"/>
    </vehicle>
    <vehicle id="46" depart="70.75">
        <route edges="b11[1][1] bm66a bm66b b5[1][1][1] b16[0] b29[0] b29[1] b4[1][1][0]"/>
    </vehicle>
    <vehicle id="47" depart="71.90">
        <route edges="b3[0] b9 b11[0] b11[1][1] b101 b35[0] b35[1][0] b50[0] b50[1] b50[1]a a181 a18 a69 a161 a194 a91 a186 a109[0] a109[1][0]+20003 a109[1][1] a120"/>
    </vehicle>
    <vehicle id="48" depart="72.44">
        <route edges="b63[0] b63[1] b4[0] b4[1][1][0] b9 b11[0] b11[1][1] b101 b35[0] b35[1][0] b35[1][1][0] b20000+35[1][1][1][0] b35[1][1][1][1] a203[1] a203[1]b a202 a34 a134 a134b a133 a31 a115 a110"/>
    </vehicle>
    <vehicle id="49" depart="73.23">
        <route edges="b65 b5[1][0]+66 b5[1][1][1] b16[0] b16[1] b18 b20+19a b21"/>
    </vehicle>
    <vehicle id="50" depart="75.27">
        <route edges="a197 a109[0] a109[1][0]+20003 a109[1][1] a116 a46 a201 a201c a204a[0] a124 b12 b56[0] b56[1][0] b56[1][1] b5[1][0]+66 b5[1][1][1] b8 b4[1][1][1]"/>
    </vehicle>
    <vehicle id="51" depart="75.73">
        <route edges="b3[0] b9 b11[0] b11[1][1] b101 b35[0] b35[1][0] b50[0] b50[1] b50[1]a a181 a18 a69 a161 a194 a91 a186 a109[0] a109[1][0]+20003 a109[1][1] a120"/>
    </vehicle>
    <vehicle id="52" depart="76.14">
        <route edges="b11[1][1] b101 b35[0] b35[1][0] b50[0] b50[1] b50[1]a a181 a18 a69 a161 a122 a1b"/>
    </vehicle>
    <vehicle id="53" depart="79.13">
        <route edges="b52 b51 b56[0] b56[1][0] b56[1][1] b5[1][0]+66 b5[1][1][1] b8 b4[1][1][1]"/>
    </vehicle>
    <vehicle id="54" depart="79.93">
        <route edges="a203[0] b12 b50[0] b50[1] b50[1]a a181 a18 a17 a71 a67 a80 a127 a77[1][0] a77ab a77bc a77cd a53cd a53[0] a53[1][0] a79 a74"/>
    </vehicle>
    <vehicle id="55" depart="81.25">
        <route edges="b39[1][1][1] b45 b2[0] b2[1][0] b24 b23 b17[0] b17[1] b11[0] b5[1][1][1]"/>
    </vehicle>
    <vehicle id="56" depart="82.97">
        <route edges="a203[0] a203[1] a203[1]b a202 a34 a134 a134b a133 a31 a201 a201c a204a[0]"/>
    </vehicle>
    <vehicle id="57" depart="84.36">
        <route edges="a14 a9 a211 a45 a44 a38 a15 a24 a22 a59 a53cd a53[0] a53[1][0] a79 a68 a11 b38[0] b38[0]a b38[1][0] b38[1][1] b38[1][1]a b56[1][0] b56[1][1] b5[1][0]+66 b5[1][1][1] b8 b4[1][1][1]"/>
    </vehicle>
    <vehicle id="58" depart="85.98">
        <route edges="a210 a43[0] a43[1] a134 a134b"/>
    </vehicle>
    <vehicle id="59" depart="87.81">
        <route edges="b38[1][0] b38[1][1] b38[1][1]a b35[1][0] b35[1][1][0] b20000+35[1][1][1][0] b35[1][1][1][1] a203[1] a203[1]b a202 a34 a113 a209"/>
    </vehicle>
    <vehicle id="60" depart="88.72">
        <route edges="b52 b51 b50[0] b50[1] b49[1] b55 b35[1][1][0] b20000+35[1][1][1][0] b35[1][1][1][1] a203[1] a203[1]b a202 a34 a113"/>
    </vehicle>
    <vehicle id="61" depart="88.91">
        <route edges="a127 a77[1][0] a77ab a77bc a77cd a53cd a53[0] a78[1][1] a189[0] a189[1][0]+20000 a189[1][1] a191 a69 a161 a122 a1b a1 a204a[0]"/>
    </vehicle>
    <vehicle id="62" depart="89.34">
        <route edges="b52 b51 b50[0] b50[1] b50[1]a b47 b37 b26 b26.-170 b15"/>
    </vehicle>
    <vehicle id="63" depart="92.67">
        <route edges="a161 a122 a1b a1 a204a[0] a204b[0] a54"/>
    </vehicle>
    <vehicle id="64" depart="93.02">
        <route edges="b34[1][1] b2[1][0] b24 b23 b27 b36 b39[1][1][1] b45 a67 a80 a127 a77[1][0] a77ab a77bc a77cd a53cd a82 a51 a219 a218 a38 a50"/>
    </vehicle>
    <vehicle id="65" depart="95.79">
        <route edges="b3[0] b9 b11[0] b11[1][1] b101 b35[0] b35[1][0] b50[0] b50[1] b50[1]a a181 a18 a69 a161 a194 a91 a186 a109[0] a109[1][0]+20003 a109[1][1] a120"/>
    </vehicle>
    <vehicle id="66" depart="100.23">
        <route edges="a55b a125 b12 b50[0] b50[1] b49[1] b55 b35[1][1][0] b20000+35[1][1][1][0] b35[1][1][1][1] a203[1] a203[1]b a202"/>
    </vehicle>
    <vehicle id="67" depart="101.24">
        <route edges="a72[1] a69 a161 a122 a1b a1 a204a[0] a124 b12 b53 b53a"/>
    </vehicle>
    <vehicle id="68" depart="101.49">
        <route edges="b3[0] b9 b11[0] b11[1][1] b101 b35[0] b35[1][0] b50[0] b50[1] b50[1]a a181 a18 a69 a161 a194 a91 a186 a109[0] a109[1][0]+20003 a109[1][1] a120"/>
    </vehicle>
    <vehicle id="69" depart="105.48">
        <route edges="am1 a21b a20 a219 a218 a38 a15 a24 a22 a59 a53cd a53[0] a53[1][0] a79 a68 a11 b38[0] b38[0]a b37 b26 b26.-170 b17[0] b30"/>
    </vehicle>
    <vehicle id="70" depart="109.27">
        <route edges="b28 b28a b17[1] b11[0] b11[1][1] b101 b35[0] b35[1][0] b35[1][1][0] b20000+35[1][1][1][0] b35[1][1][1][1] a203[1] a203[1]b a202 a34 a134 a134b"/>
    </vehicle>
    <vehicle id="71" depart="110.97">
        <route edges="b6 b100 b7 b3[1] b3[1]b"/>
    </vehicle>
    <vehicle id="72" depart="111.49">
        <route edges="b13[0] b13[1] b4[0] b4[1][1][0] b10"/>
    </vehicle>
    <vehicle id="73" depart="111.80">
        <route edges="b56[1][1] b5[1][0]+66 b5[1][1][1] b8 b3[1] b3[1]b"/>
    </vehicle>
    <vehicle id="74" depart="111.85">
        <route edges="b13[0] b13[1] b4[0] b4[1][1][0] b10"/>
    </vehicle>
    <vehicle id="75" depart="112.23">
        <route edges="b13[0] b13[1] b4[0] b4[1][1][0] b10"/>
    </vehicle>
    <vehicle id="76" depart="112.37">
        <route edges="a210 a43[0] a43[1] a201 a201c a204a[0] a204b[0] a54"/>
    </vehicle>
    <vehicle id="77" depart="115.18">
        <route edges="a133 a31 a201 a201c a204a[0] a124 b12 b56[0] b39[0] b39[1][0]"/>
    </vehicle>
    <vehicle id="78" depart="116.89">
        <route edges="b3[0] b9 b11[0] b11[1][1] b101 b35[0] b35[1][0] b50[0] b50[1] b50[1]a a181 a18 a69 a161 a194 a91 a186 a109[0] a109[1][0]+20003 a109[1][1] a120"/>
    </vehicle>
    <vehicle id="79" depart="116.95">
        <route edges="b13[1] b4[0] b4[1][1][0] b4[1][1][1]"/>
    </vehicle>
    <vehicle id="80" depart="118.08">
        <route edges="b17[0] b17[1] b11[0] b11[1][1] b101 b35[0] b35[1][0] b50[0] b50[1] b50[1]a a181 a18 a69 a161 a122 a1b a1 a204a[0] a204b[0] a204[1][0] a125"/>
    </vehicle>
    <vehicle id="81" depart="120.32">
        <route edges="a203[0] a203[1] a203[1]b a202 a34 a134 a134b a133 a31 a115 a110 a185 a92 a90 a89[0] a20002+89[1][0] a89[1][1]"/>
    </vehicle>
    <vehicle id="82" depart="120.34">
        <route edges="b6 b100 b7 b3[1]"/>
    </vehicle>
    <vehicle id="83" depart="123.47">
        <route edges="b13[0] b13[1] b4[0] b4[1][1][0] b10"/>
    </vehicle>
    <vehicle id="84" depart="123.76">
        <route edges="b5[1][0]+66 b11[1][1] b101 b35[0] b35[1][0] b35[1][1][0] b20000+35[1][1][1][0] b35[1][1][1][1] a203[1] a203[1]b a202 a34 a134 a134b a133 a31 a115 a110 a185"/>
    </vehicle>
    <vehicle id="85" depart="126.57">
        <route edges="b1[0] ba1[1] b1[1] a72[0] a72[1] a69 a161 a122 a1b a1 a204a[0] a124"/>
    </vehicle>
    <vehicle id="86" depart="130.83">
        <route edges="b6 b100 b7 b3[1] b3[1]b"/>
    </vehicle>
    <vehicle id="87" depart="135.10">
        <route edges="a203[0] b12 b56[0] b56[1][0] b56[1][1] b5[1][0]+66 b5[1][1][1] b16[0] b16[1] b18 b20+19a"/>
    </vehicle>
    <vehicle id="88" depart="135.24">
        <route edges="a224[1] a181 a18 a69 a161 a122 a1b a1 a204a[0] a204b[0] a204[1][0] a204[1][1]"/>
    </vehicle>
    <vehicle id="89" depart="135.71">
        <route edges="a125 b12 b50[0] b50[1] b49[1] b55 b35[1][1][0] b20000+35[1][1][1][0] b35[1][1][1][1] a203[1] a203[1]b a202 a34 a113 a209"/>
    </vehicle>
    <vehicle id="90" depart="136.02">
        <route edges="b2[1][0] b24 b23 b27 b36 b39[1][1][1] b45 a67 a80 a127 a77[1][0] a77ab a77bc a77cd a53cd a53[0] a78[1][1] a189[0] a189[1][0]+20000 a189[1][1] a188 a87[0]"/>
    </vehicle>
    <vehicle id="91" depart="136.15">
        <route edges="b13[0] b13[1] b4[0] b4[1][1][0] b10"/>
    </vehicle>
    <vehicle id="92" depart="138.10">
        <route edges="a55 a55b a125 b12 b50[0] b50[1] b49[1] b55 b35[1][1][0] b20000+35[1][1][1][0] b35[1][1][1][1] a203[1] a203[1]b a202 a34 a134 a134b a133 a31 a115 a110 a185 a92"/>
    </vehicle>
    <vehicle id="93" depart="138.11">
        <route edges="b9 b11[0] b11[1][1] b101 b35[0] b39[0] b39[1][0] b39[1][1][0] b39[1][1][1] b45 a67 a80 a127 a77[1][0] a77ab a77bc a77cd a53cd a53[0] a78[1][1] a189[0] a189[1][0]+20000 a189[1][1] a188 a87[0] a20001+87[1][0] a87[1][1] am90 a89[0]"/>
    </vehicle>
    <vehicle id="94" depart="138.93">
        <route edges="a66 a119 a116 a46 a201 a201c a204a[0] a124 b12 b56[0] b39[0] b39[1][0]"/>
    </vehicle>
    <vehicle id="95" depart="139.68">
        <route edges="a133 a31 a201 a201c a204a[0] a124 b12 b56[0] b39[0] b39[1][0] b39[1][1][0] b39[1][1][1]"/>
    </vehicle>
    <vehicle id="96" depart="139.73">
        <route edges="b3[0] b9 b11[0] b11[1][1] b101 b35[0] b35[1][0] b50[0] b50[1] b50[1]a a181 a18 a69 a161 a194 a91 a186 a109[0] a109[1][0]+20003 a109[1][1] a120"/>
    </vehicle>
    <vehicle id="97" depart="140.42">
        <route edges="b39[1][1][1] b45 b2[0] b2[1][0] b24 b23 b17[0] b17[1] b8"/>
    </vehicle>
    <vehicle id="98" depart="141.45">
        <route edges="b1[0] ba1[1] b1[1] a72[0] a72[1] a69 a161 a122 a1b a1 a204a[0] a124"/>
    </vehicle>
    <vehicle id="99" depart="141.90">
        <route edges="a66 a119 a116 a46 a201 a201c a204a[0] a124 b12 b56[0] b56[1][0] b56[1][1] b5[1][0]+66 b5[1][1][1] b8 b10"/>
    </vehicle>
    <vehicle id="100" depart="142.41">
        <route edges="b71 b101 b35[0] b35[1][0] b35[1][1][0] b20000+35[1][1][1][0] b35[1][1][1][1] a203[1] a203[1]b a202 a34 a113 a209"/>
    </vehicle>
    <vehicle id="101" depart="142.96">
        <route edges="a210 a43[0] a43[1] a115 a110 a185 a92 a90 am91 a88 a187 a191 a17 a71 b2[0] b34[1][2]"/>
    </vehicle>
    <vehicle id="102" depart="143.27">
        <route edges="b13[0] b13[1] b4[0] b4[1][1][0] b10"/>
    </vehicle>
    <vehicle id="103" depart="143.81">
        <route edges="a203[0] b12 b50[0] b50[1] b49[1]"/>
    </vehicle>
    <vehicle id="104" depart="144.25">
        <route edges="a190 a77[0] a53[1][0] a79 a74 a72[1] a69 a161 a122 a1b"/>
    </vehicle>
    <vehicle id="105" depart="145.17">
        <route edges="a210 a43[0] a43[1] a115 a110 a185 a92 a90 am91 a88 a187 a190 a77[0] a53[1][0] a53[1][1][0] a77[1][0] a77ab a77bc a77cd a53cd a53[0] a78[1][1] a189[0]"/>
    </vehicle>
    <vehicle id="106" depart="146.11">
        <route edges="a10 a13 a104 a24 a22 a59 a53cd a53[0] a78[1][1] a189[0] a189[1][0]+20000 a189[1][1] a191 a69 a161 a122 a1b a1 a204a[0] a204b[0] a204[1][0] a204[1][1]"/>
    </vehicle>
    <vehicle id="107" depart="147.52">
        <route edges="a210 a43[0] a43[1] a115 a110 a185 a92 a90 am91 a88 a187 a190 a77[0] a53[1][0] a53[1][1][0] a77[1][0] a77ab a77bc a77cd a53cd a53[0] a78[1][1] a75"/>
    </vehicle>
    <vehicle id="108" depart="147.90">
        <route edges="b13[0] b13[1] b4[0] b4[1][1][0] b10"/>
    </vehicle>
    <vehicle id="109" depart="151.92">
        <route edges="a201 a201c a204a[0] a124 b12 b50[0] b50[1] b50[1]a a181 a18 a17 a71 b2[0]"/>
    </vehicle>
    <vehicle id="110" depart="157.18">
        <route edges="a203[0] b12 b50[0] b50[1] b50[1]a a181 a18 a17 a71 b2[0] b2[1][0] b2[1][1][0] b21"/>
    </vehicle>
    <vehicle id="111" depart="157.85">
        <route edges="a210 a43[0] a43[1] a115 a110 a185 a92 a90 am91 a88 a187 a191 a17"/>
    </vehicle>
    <vehicle id="112" depart="157.97">
        <route edges="b13[0] b13[1] b4[0] b4[1][1][0] b10"/>
    </vehicle>
    <vehicle id="113" depart="158.92">
        <route edges="a55b a125 b12 b50[0] b50[1] b49[1] b55 b35[1][1][0] b20000+35[1][1][1][0] b35[1][1][1][1] a203[1] a203[1]b a202 a34 a134 a134b"/>
    </vehicle>
    <vehicle id="114" depart="160.52">
        <route edges="b3[0] b9 b11[0] b11[1][1] b101 b35[0] b35[1][0] b50[0] b50[1] b50[1]a a181 a18 a69 a161 a194 a91 a186 a109[0] a109[1][0]+20003 a109[1][1] a120"/>
    </vehicle>
    <vehicle id="115" depart="161.17">
        <route edges="b13[0] b13[1] b4[0] b4[1][1][0] b10"/>
    </vehicle>
    <vehicle id="116" depart="161.50">
        <route edges="b3[0] b9 b11[0] b11[1][1] b101 b35[0] b35[1][0] b50[0] b50[1] b50[1]a a181 a18 a69 a161 a194 a91 a186 a109[0] a109[1][0]+20003 a109[1][1] a120"/>
    </vehicle>
    <vehicle id="117" depart="165.85">
        <route edges="a161 a122 a1b a1 a204a[0] a124 b12 b53 b53a"/>
    </vehicle>
    <vehicle id="118" depart="168.07">
        <route edges="b7 b3[1] b3[1]b"/>
    </vehicle>
    <vehicle id="119" depart="169.07">
        <route edges="a43[1] a201 a201c a204a[0] a124 b12 b56[0] b56[1][0] b56[1][1] b64"/>
    </vehicle>
    <vehicle id="120" depart="169.42">
        <route edges="a93 a48 a42 a153 a87[0] a20001+87[1][0] a87[1][1] am90 a171 a161 a122 a1b a1 a204a[0] a204b[0] a54"/>
    </vehicle>
    <vehicle id="121" depart="170.70">
        <route edges="a72[0] a72[1] a69 a161 a122 a1b a1 a204a[0] a124 b12 b50[0] b50[1] b50[1]a a181 a18 a17 a71 b2[0] b2[1][0] b2[1][1][0] b2[1][1][1] b2[1][1][1]b"/>
    </vehicle>
    <vehicle id="122" depart="172.01">
        <route edges="b34[1][1] b2[1][0] b24 b23 b27 b36 b46 a181 a18 a69 a161 a122 a3 a2 a202 a34 a113 a209"/>
    </vehicle>
    <vehicle id="123" depart="174.47">
        <route edges="a224[1] a181 a18 a69 a161 a122 a1b a1 a204a[0] a204b[0] a204[1][0] a204[1][1]"/>
    </vehicle>
    <vehicle id="124" depart="175.56">
        <route edges="a224[1] a181 a18 a69 a161 a122 a1b a1 a204a[0] a204b[0] a204[1][0] a204[1][1]"/>
    </vehicle>
    <vehicle id="125" depart="176.42">
        <route edges="a125 b12 b56[0] b56[1][0] b56[1][1] b5[1][0]+66 b5[1][1][1] b8 b4[1][1][1]"/>
    </vehicle>
    <vehicle id="126" depart="176.93">
        <route edges="a44 a38 a15 a24 a22 a59 a53cd a53[0] a53[1][0] a79 a68 a11 b38[0] b38[0]a b38[1][0] b38[1][1] b38[1][1]a b56[1][0] b56[1][1] b70"/>
    </vehicle>
    <vehicle id="127" depart="176.98">
        <route edges="a224[1] b47 b37 b26 b26.-170 b18 b20+19a ba1[1] b1[1]"/>
    </vehicle>
    <vehicle id="128" depart="177.46">
        <route edges="a11 a72[0] a72[1] a69 a161 a122 a1b a1 a204a[0] a204b[0] a54"/>
    </vehicle>
    <vehicle id="129" depart="177.48">
        <route edges="a165 a31 a201 a201c a204a[0] a124 b12 b56[0] b56[1][0] b56[1][1] b5[1][0]+66 b5[1][1][1] b8 b10"/>
    </vehicle>
    <vehicle id="130" depart="177.51">
        <route edges="bm66a bm66b b5[1][1][1] b8 b3[1]"/>
    </vehicle>
    <vehicle id="131" depart="179.21">
        <route edges="b1[0] b25 b23 b17[0] b17[1] b8 b4[1][1][1]"/>
    </vehicle>
    <vehicle id="132" depart="179.50">
        <route edges="a203[0] b12 b50[0] b50[1] b50[1]a a181 a18 a17 a71 b2[0] b2[1][0] b2[1][1][0] b2[1][1][1] b2[1][1][1]b"/>
    </vehicle>
    <vehicle id="133" depart="181.16">
        <route edges="b13[0] b13[1] b4[0] b4[1][1][0] b10"/>
    </vehicle>
    <vehicle id="134" depart="181.83">
        <route edges="a1b a1 a204a[0] a124 b12 b50[0] b50[1] b50[1]a a181 a18 a69 a161 a194 a91 a186 a109[0] a109[1][0]+20003 a109[1][1] a120"/>
    </vehicle>
    <vehicle id="135" depart="184.20">
        <route edges="b97 b38[1][1]a b56[1][0] b56[1][1] b5[1][0]+66 b5[1][1][1] b8 b10"/>
    </vehicle>
    <vehicle id="136" depart="184.41">
        <route edges="b13[0] b13[1] b4[0] b4[1][1][0] b10"/>
    </vehicle>
    <vehicle id="137" depart="185.97">
        <route edges="b6 b100 b7 b9 b11[0] b11[1][1] b101 b35[0] b39[0] b39[1][0] b39[1][1][0] b39[1][1][1] b45 a67 a80 a127 a77[1][0] a77ab a77bc a77cd a53cd a82 a51 a219 a218 a38 a15"/>
    </vehicle>
    <vehicle id="138" depart="187.08">
        <route edges="b7 b3[1] b3[1]b"/>
    </vehicle>
    <vehicle id="139" depart="187.29">
        <route edges="b71 b101 b35[0] b35[1][0] b35[1][1][0] b20000+35[1][1][1][0] b35[1][1][1][1] a203[1] a203[1]b a202 a34 a113 a209"/>
    </vehicle>
    <vehicle id="140" depart="187.37">
        <route edges="b2[0] b2[1][0] b24 b23 b17[0] b17[1] b11[0]"/>
    </vehicle>
    <vehicle id="141" depart="187.46">
        <route edges="b6 b100 b7 b3[1] b3[1]b"/>
    </vehicle>
    <vehicle id="142" depart="188.17">
        <route edges="b7 b3[1] b3[1]b"/>
    </vehicle>
    <vehicle id="143" depart="188.20">
        <route edges="b13[0] b13[1] b4[0] b4[1][1][0] b10"/>
    </vehicle>
    <vehicle id="144" depart="188.40">
        <route edges="b3[0] b9 b11[0] b11[1][1] b101 b35[0] b35[1][0] b50[0] b50[1] b50[1]a a181 a18 a69 a161 a194 a91 a186 a109[0] a109[1][0]+20003 a109[1][1] a120"/>
    </vehicle>
    <vehicle id="145" depart="188.45">
        <route edges="b5[1][0]+66 b5[1][1][1] b8"/>
    </vehicle>
    <vehicle id="146" depart="189.76">
        <route edges="b6 b100 b7 b3[1]"/>
    </vehicle>
    <vehicle id="147" depart="190.17">
        <route edges="b39[1][1][1] b45 b2[0] b2[1][0] b24 b23 b17[0] b17[1] b11[0] b11[1][1]"/>
    </vehicle>
    <vehicle id="148" depart="190.57">
        <route edges="a131 a119 a116 a46 a201 a201c a204a[0] a124 b12 b56[0] b56[1][0] b56[1][1] b5[1][0]+66 b5[1][1][1] b8 b3[1] b3[1]b"/>
    </vehicle>
    <vehicle id="149" depart="192.36">
        <route edges="a203[0] b12 b56[0] b56[1][0] b56[1][1] b5[1][0]+66 b5[1][1][1] b8 b4[1][1][1]"/>
    </vehicle>
    <vehicle id="150" depart="192.88">
        <route edges="b6 b100 b7 b3[1] b3[1]b"/>
    </vehicle>
    <vehicle id="151" depart="194.57">
        <route edges="b7 b3[1] b3[1]b"/>
    </vehicle>
    <vehicle id="152" depart="196.23">
        <route edges="a203[0] b12 b50[0] b50[1] b50[1]a a181 a18 a69 a161 a122 a1b a1"/>
    </vehicle>
    <vehicle id="153" depart="197.08">
        <route edges="a171 a161 a122 a1b a1 a204a[0] a124 b12 b56[0] b56[1][0] b56[1][1] b5[1][0]+66 b5[1][1][1] b8"/>
    </vehicle>
    <vehicle id="154" depart="198.37">
        <route edges="b3[0] b9 b11[0] b11[1][1] b101 b35[0] b35[1][0] b50[0] b50[1] b50[1]a a181 a18 a69 a161 a194 a91 a186 a109[0] a109[1][0]+20003 a109[1][1] a120"/>
    </vehicle>
    <vehicle id="155" depart="198.56">
        <route edges="a203[0] a203[1] a203[1]b a202 a34 a113 a209"/>
    </vehicle>
    <vehicle id="156" depart="199.20">
        <route edges="b34[1][1] b2[1][0] b24 b23 b27 b36 b39[1][1][1] b45 a67 a80 a127 a77[1][0] a77ab a77bc a77cd a53cd a82 a51 a219 a218 a36 a40 a41 a160 a61"/>
    </vehicle>
    <vehicle id="157" depart="199.30">
        <route edges="a203[0] a203[1] a203[1]b a202 a34 a113 a209"/>
    </vehicle>
    <vehicle id="158" depart="201.33">
        <route edges="a203[0] a203[1] a203[1]b a202 a34 a134 a134b a133 a31"/>
    </vehicle>
    <vehicle id="159" depart="202.37">
        <route edges="b13[0] b13[1] b4[0] b4[1][1][0] b10"/>
    </vehicle>
    <vehicle id="160" depart="202.80">
        <route edges="a40 a153 a87[0] a20001+87[1][0] a87[1][1] am90 a171 a161 a122 a1b a1 a204a[0] a204b[0] a54"/>
    </vehicle>
    <vehicle id="161" depart="202.97">
        <route edges="b4[0] b28 b28a b17[1] b8 b3[1]"/>
    </vehicle>
    <vehicle id="162" depart="203.46">
        <route edges="a203[0] b12 b50[0] b50[1] b50[1]a a181 a18 a69 a161 a122 a1b a1"/>
    </vehicle>
    <vehicle id="163" depart="203.85">
        <route edges="b6 b100 b7 b3[1] b3[1]b"/>
    </vehicle>
    <vehicle id="164" depart="205.21">
        <route edges="b3[0] b9 b11[0] b11[1][1] b101 b35[0] b35[1][0] b50[0] b50[1] b50[1]a a181 a18 a69 a161 a194 a91 a186 a109[0] a109[1][0]+20003 a109[1][1] a120"/>
    </vehicle>
    <vehicle id="165" depart="205.56">
        <route edges="a78[0] a56a a56b a77bc a77cd a53cd a53[0] a78[1][1] a189[0] a189[1][0]+20000 a189[1][1] a191 a69 a161 a122 a1b a1"/>
    </vehicle>
    <vehicle id="166" depart="205.68">
        <route edges="b2[1][0] b24 b23 b17[0] b17[1] b8 b4[1][1][1]"/>
    </vehicle>
    <vehicle id="167" depart="209.66">
        <route edges="b50[1]a b47 b38[1][0] b38[1][1] b38[1][1]a b56[1][0] b56[1][1] b5[1][0]+66 b5[1][1][1] b8 b3[1] b3[1]b"/>
    </vehicle>
    <vehicle id="168" depart="210.73">
        <route edges="b3[0] b9 b11[0] b11[1][1] b101 b35[0] b35[1][0] b50[0] b50[1] b50[1]a a181 a18 a69 a161 a194 a91 a186 a109[0] a109[1][0]+20003 a109[1][1] a120"/>
    </vehicle>
    <vehicle id="169" depart="215.14">
        <route edges="b13[0] b13[1] b4[0] b4[1][1][0] b10"/>
    </vehicle>
    <vehicle id="170" depart="218.46">
        <route edges="b3[0] b9 b11[0] b11[1][1] b101 b35[0] b35[1][0] b50[0] b50[1] b50[1]a a181 a18 a69 a161 a194 a91 a186 a109[0] a109[1][0]+20003 a109[1][1] a120"/>
    </vehicle>
    <vehicle id="171" depart="219.26">
        <route edges="a210 a43[0] a43[1] a115 a110 a185 a92 a90 am91 a88 a187 a190 a77[0] a53[1][0] a53[1][1][0] a77[1][0] a77ab a77bc a77cd a53cd a82 a51 a219"/>
    </vehicle>
    <vehicle id="172" depart="220.38">
        <route edges="b49[1] b55 b56[0] b39[0] b39[1][0] b39[1][1][0] b39[1][1][1] b45 a67 a80 a127 a77[1][0] a77ab a77bc a77cd a53cd a82 a51 a219 a218 a38 a15 a24"/>
    </vehicle>
    <vehicle id="173" depart="221.79">
        <route edges="a210 a43[0] a43[1] a201 a201c a204a[0] a124 b12 b56[0] b56[1][0] b56[1][1] b67 b31"/>
    </vehicle>
    <vehicle id="174" depart="226.47">
        <route edges="b3[0] b9 b11[0] b11[1][1] b101 b35[0] b35[1][0] b50[0] b50[1] b50[1]a a181 a18 a69 a161 a194 a91 a186 a109[0] a109[1][0]+20003 a109[1][1] a120"/>
    </vehicle>
    <vehicle id="175" depart="227.71">
        <route edges="b34[1][1] b2[1][0] b24 b23 b27 b36 b39[1][1][1] b45 a67 a80 a127 a77[1][0] a77ab a77bc a77cd a53cd a82 a51 a219 a218 a36 a40 a41 a160 a61"/>
    </vehicle>
    <vehicle id="176" depart="227.75">
        <route edges="b97 b38[1][1]a b35[1][0] b35[1][1][0] b20000+35[1][1][1][0] b35[1][1][1][1] a203[1]"/>
    </vehicle>
    <vehicle id="177" depart="228.73">
        <route edges="b13[0] b13[1] b4[0] b4[1][1][0] b10"/>
    </vehicle>
    <vehicle id="178" depart="228.97">
        <route edges="b52 b51 b50[0] b50[1] b49[1] b55 b35[1][1][0] b20000+35[1][1][1][0] b35[1][1][1][1] a203[1] a203[1]b a202 a34 a113"/>
    </vehicle>
    <vehicle id="179" depart="230.74">
        <route edges="b13[0] b13[1] b4[0] b4[1][1][0] b10"/>
    </vehicle>
    <vehicle id="180" depart="233.64">
        <route edges="a203[0] a203[1] a203[1]b a202 a34 a113 a209"/>
    </vehicle>
    <vehicle id="181" depart="235.00">