<additional>
  <inductionLoop id="4_0" lane="a117_0" pos="-5" freq="1800" file="e1_real_output.xml" />
  <inductionLoop id="6_0" lane="b2[1][1][1]b_0" pos="-5" freq="1800" file="e1_real_output.xml" />
  <inductionLoop id="9_0" lane="b71_0" pos="-5" freq="1800" file="e1_real_output.xml" />
  <inductionLoop id="10_0" lane="b53_0" pos="-5" freq="1800" file="e1_real_output.xml" />
  <inductionLoop id="68_0" lane="a60_0" pos="-5" freq="1800" file="e1_real_output.xml" />
  <inductionLoop id="71_0" lane="a201_0" pos="-5" freq="1800" file="e1_real_output.xml" />
  <inductionLoop id="76_0" lane="b2[1][0]_0" pos="-5" freq="1800" file="e1_real_output.xml" />
  <inductionLoop id="77_0" lane="a201_0" pos="-5" freq="1800" file="e1_real_output.xml" />
  <inductionLoop id="78_0" lane="a204a[0]_0" pos="-5" freq="1800" file="e1_real_output.xml" />
  <inductionLoop id="86_0" lane="b4[1][1][0]_0" pos="-5" freq="1800" file="e1_real_output.xml" />
  <inductionLoop id="87_0" lane="b76_0" pos="-5" freq="1800" file="e1_real_output.xml" />
  <inductionLoop id="88_0" lane="b53_0" pos="-5" freq="1800" file="e1_real_output.xml" />
  <inductionLoop id="89_0" lane="b12_0" pos="-5" freq="1800" file="e1_real_output.xml" />
  <inductionLoop id="90_0" lane="a204[1][1]_0" pos="-5" freq="1800" file="e1_real_output.xml" />
  <inductionLoop id="93_0" lane="a203[0]_0" pos="-5" freq="1800" file="e1_real_output.xml" />
  <inductionLoop id="94_0" lane="a204[1][1]_0" pos="-5" freq="1800" file="e1_real_output.xml" />
  <inductionLoop id="210_0" lane="a43[0]_0" pos="-5" freq="1800" file="e1_real_output.xml" />
  <inductionLoop id="216_0" lane="b31_0" pos="-5" freq="1800" file="e1_real_output.xml" />
  <inductionLoop id="271_0" lane="a55_0" pos="-5" freq="1800" file="e1_real_output.xml" />
  <inductionLoop id="282_0" lane="a134_0" pos="-5" freq="1800" file="e1_real_output.xml" />
  <inductionLoop id="284_0" lane="b2[1][0]_0" pos="-5" freq="1800" file="e1_real_output.xml" />
  <inductionLoop id="285_0" lane="b23_0" pos="-5" freq="1800" file="e1_real_output.xml" />
  <inductionLoop id="286_0" lane="b38[0]_0" pos="-5" freq="1800" file="e1_real_output.xml" />
  <inductionLoop id="294_0" lane="b37_0" pos="-5" freq="1800" file="e1_real_output.xml" />
  <inductionLoop id="364_0" lane="a210_0" pos="-5" freq="1800" file="e1_real_output.xml" />
  <inductionLoop id="366_0" lane="b20+19a_0" pos="-5" freq="1800" file="e1_real_output.xml" />
  <inductionLoop id="367_0" lane="b38[0]_0" pos="-5" freq="1800" file="e1_real_output.xml" />
  <inductionLoop id="370_0" lane="b4[1][1][1]_0" pos="-5" freq="1800" file="e1_real_output.xml" />
  <inductionLoop id="371_0" lane="b70_0" pos="-5" freq="1800" file="e1_real_output.xml" />
  <inductionLoop id="436_0" lane="a20001+87[1][0]_0" pos="-5" freq="1800" file="e1_real_output.xml" />
  <inductionLoop id="437_0" lane="a191_0" pos="-5" freq="1800" file="e1_real_output.xml" />
  <inductionLoop id="442_0" lane="a67_0" pos="-5" freq="1800" file="e1_real_output.xml" />
  <inductionLoop id="443_0" lane="b2[0]_0" pos="-5" freq="1800" file="e1_real_output.xml" />
  <inductionLoop id="444_0" lane="b2[1][0]_0" pos="-5" freq="1800" file="e1_real_output.xml" />
  <inductionLoop id="446_0" lane="b4[1][1][1]_0" pos="-5" freq="1800" file="e1_real_output.xml" />
  <inductionLoop id="447_0" lane="b55_0" pos="-5" freq="1800" file="e1_real_output.xml" />
  <inductionLoop id="448_0" lane="a195_0" pos="-5" freq="1800" file="e1_real_output.xml" />
  <inductionLoop id="536_0" lane="a181_0" pos="-5" freq="1800" file="e1_real_output.xml" />
  <inductionLoop id="594_0" lane="a210_0" pos="-5" freq="1800" file="e1_real_output.xml" />
  <inductionLoop id="600_0" lane="b2[1][1][1]b_0" pos="-5" freq="1800" file="e1_real_output.xml" />
  <inductionLoop id="603_0" lane="b38[1][0]_0" pos="-5" freq="1800" file="e1_real_output.xml" />
  <inductionLoop id="608_0" lane="b3[1]_0" pos="-5" freq="1800" file="e1_real_output.xml" />
  <inductionLoop id="611_0" lane="b17[0]_0" pos="-5" freq="1800" file="e1_real_output.xml" />
  <inductionLoop id="615_0" lane="b17[1]_0" pos="-5" freq="1800" file="e1_real_output.xml" />
  <inductionLoop id="704_0" lane="b15_0" pos="-5" freq="1800" file="e1_real_output.xml" />
  <inductionLoop id="765_0" lane="a71_0" pos="-5" freq="1800" file="e1_real_output.xml" />
  <inductionLoop id="766_0" lane="b20+19a_0" pos="-5" freq="1800" file="e1_real_output.xml" />
  <inductionLoop id="852_0" lane="a104_0" pos="-5" freq="1800" file="e1_real_output.xml" />
  <inductionLoop id="883_0" lane="a210_0" pos="-5" freq="1800" file="e1_real_output.xml" />
  <inductionLoop id="895_0" lane="b8_0" pos="-5" freq="1800" file="e1_real_output.xml" />
  <inductionLoop id="971_0" lane="a153_0" pos="-5" freq="1800" file="e1_real_output.xml" />
  <inductionLoop id="1048_0" lane="a77[1][1]_0" pos="-5" freq="1800" file="e1_real_output.xml" />
  <inductionLoop id="1053_0" lane="b10_0" pos="-5" freq="1800" file="e1_real_output.xml" />
  <inductionLoop id="1153_0" lane="a77[1][1]_0" pos="-5" freq="1800" file="e1_real_output.xml" />
  <inductionLoop id="1221_0" lane="b38[0]a_0" pos="-5" freq="1800" file="e1_real_output.xml" />
  <inductionLoop id="1234_0" lane="a124_0" pos="-5" freq="1800" file="e1_real_output.xml" />
  <inductionLoop id="1235_0" lane="a122_0" pos="-5" freq="1800" file="e1_real_output.xml" />
  <inductionLoop id="1238_0" lane="a195_0" pos="-5" freq="1800" file="e1_real_output.xml" />
  <inductionLoop id="1345_0" lane="a190_0" pos="-5" freq="1800" file="e1_real_output.xml" />
  <inductionLoop id="1346_0" lane="a11_0" pos="-5" freq="1800" file="e1_real_output.xml" />
  <inductionLoop id="1390_0" lane="a78[0]_0" pos="-5" freq="1800" file="e1_real_output.xml" />
  <inductionLoop id="1452_0" lane="b55_0" pos="-5" freq="1800" file="e1_real_output.xml" />
  <inductionLoop id="1798_0" lane="b53_0" pos="-5" freq="1800" file="e1_real_output.xml" />
  <inductionLoop id="1889_0" lane="a43[1]_0" pos="-5" freq="1800" file="e1_real_output.xml" />
  <inductionLoop id="2025_0" lane="b26.-170_0" pos="-5" freq="1800" file="e1_real_output.xml" />
  <inductionLoop id="2033_0" lane="b12_0" pos="-5" freq="1800" file="e1_real_output.xml" />
  <inductionLoop id="2066_0" lane="a201_0" pos="-5" freq="1800" file="e1_real_output.xml" />
  <inductionLoop id="2141_0" lane="b17[1]_0" pos="-5" freq="1800" file="e1_real_output.xml" />
  <inductionLoop id="2288_0" lane="a78[0]_0" pos="-5" freq="1800" file="e1_real_output.xml" />
  <inductionLoop id="2299_0" lane="b47_0" pos="-5" freq="1800" file="e1_real_output.xml" />
  <inductionLoop id="2641_0" lane="b56[1][1]_0" pos="-5" freq="1800" file="e1_real_output.xml" />
  <inductionLoop id="3015_0" lane="a55_0" pos="-5" freq="1800" file="e1_real_output.xml" />
  <inductionLoop id="3079_0" lane="b56[0]_0" pos="-5" freq="1800" file="e1_real_output.xml" />
  <inductionLoop id="3536_0" lane="b22[1]_0" pos="-5" freq="1800" file="e1_real_output.xml" />
  <inductionLoop id="3762_0" lane="a17_0" pos="-5" freq="1800" file="e1_real_output.xml" />
  <inductionLoop id="4867_0" lane="a103_0" pos="-5" freq="1800" file="e1_real_output.xml" />
  <inductionLoop id="5388_0" lane="a60_0" pos="-5" freq="1800" file="e1_real_output.xml" />
  <inductionLoop id="6918_0" lane="b2[1][1][1]_0" pos="-5" freq="1800" file="e1_real_output.xml" />
  <inductionLoop id="7008_0" lane="a161_0" pos="-5" freq="1800" file="e1_real_output.xml" />
  <inductionLoop id="8101_0" lane="b12_0" pos="-5" freq="1800" file="e1_real_output.xml" />
  <inductionLoop id="17723_0" lane="a171_0" pos="-5" freq="1800" file="e1_real_output.xml" />
  <inductionLoop id="20646_0" lane="b2[1][1][0]_0" pos="-5" freq="1800" file="e1_real_output.xml" />
  <inductionLoop id="21301_0" lane="b51_0" pos="-5" freq="1800" file="e1_real_output.xml" />
  <inductionLoop id="30459_0" lane="b34[1][1]_0" pos="-5" freq="1800" file="e1_real_output.xml" />
</additional>