<?xml version='1.0' encoding='UTF-8'?>
<additional>
  <inductionLoop id="109_0" lane="b38[0]_0" pos="-5" freq="1800" file="e1_real_output.xml" />
  <inductionLoop id="112_0" lane="b4[1][1][1]_0" pos="-5" freq="1800" file="e1_real_output.xml" />
  <inductionLoop id="113_0" lane="b70_0" pos="-5" freq="1800" file="e1_real_output.xml" />
  <inductionLoop id="114_0" lane="b55_0" pos="-5" freq="1800" file="e1_real_output.xml" />
  <inductionLoop id="116_0" lane="b15_0" pos="-5" freq="1800" file="e1_real_output.xml" />
  <inductionLoop id="134_0" lane="b3[1]_0" pos="-5" freq="1800" file="e1_real_output.xml" />
  <inductionLoop id="135_0" lane="b8_0" pos="-5" freq="1800" file="e1_real_output.xml" />
  <inductionLoop id="136_0" lane="b12_0" pos="-5" freq="1800" file="e1_real_output.xml" />
  <inductionLoop id="137_0" lane="b12_0" pos="-5" freq="1800" file="e1_real_output.xml" />
  <inductionLoop id="139_0" lane="b20+19a_0" pos="-5" freq="1800" file="e1_real_output.xml" />
  <inductionLoop id="140_0" lane="b17[1]_0" pos="-5" freq="1800" file="e1_real_output.xml" />
  <inductionLoop id="141_0" lane="a195_0" pos="-5" freq="1800" file="e1_real_output.xml" />
  <inductionLoop id="142_0" lane="a195_0" pos="-5" freq="1800" file="e1_real_output.xml" />
  <inductionLoop id="146_0" lane="a71_0" pos="-5" freq="1800" file="e1_real_output.xml" />
  <inductionLoop id="147_0" lane="b2[0]_0" pos="-5" freq="1800" file="e1_real_output.xml" />
  <inductionLoop id="148_0" lane="b38[0]a_0" pos="-5" freq="1800" file="e1_real_output.xml" />
  <inductionLoop id="149_0" lane="b47_0" pos="-5" freq="1800" file="e1_real_output.xml" />
  <inductionLoop id="166_0" lane="b2[1][0]_0" pos="-5" freq="1800" file="e1_real_output.xml" />
  <inductionLoop id="167_0" lane="a67_0" pos="-5" freq="1800" file="e1_real_output.xml" />
  <inductionLoop id="278_0" lane="a60_0" pos="-5" freq="1800" file="e1_real_output.xml" />
  <inductionLoop id="280_0" lane="a43[0]_0" pos="-5" freq="1800" file="e1_real_output.xml" />
  <inductionLoop id="281_0" lane="a201_0" pos="-5" freq="1800" file="e1_real_output.xml" />
  <inductionLoop id="282_0" lane="b20+19a_0" pos="-5" freq="1800" file="e1_real_output.xml" />
  <inductionLoop id="283_0" lane="b4[1][1][0]_0" pos="-5" freq="1800" file="e1_real_output.xml" />
  <inductionLoop id="284_0" lane="b31_0" pos="-5" freq="1800" file="e1_real_output.xml" />
  <inductionLoop id="302_0" lane="b2[1][1][1]b_0" pos="-5" freq="1800" file="e1_real_output.xml" />
  <inductionLoop id="303_0" lane="b23_0" pos="-5" freq="1800" file="e1_real_output.xml" />
  <inductionLoop id="304_0" lane="b38[0]_0" pos="-5" freq="1800" file="e1_real_output.xml" />
  <inductionLoop id="305_0" lane="b2[1][0]_0" pos="-5" freq="1800" file="e1_real_output.xml" />
  <inductionLoop id="306_0" lane="b38[1][0]_0" pos="-5" freq="1800" file="e1_real_output.xml" />
  <inductionLoop id="308_0" lane="b4[1][1][1]_0" pos="-5" freq="1800" file="e1_real_output.xml" />
  <inductionLoop id="309_0" lane="b10_0" pos="-5" freq="1800" file="e1_real_output.xml" />
  <inductionLoop id="310_0" lane="b55_0" pos="-5" freq="1800" file="e1_real_output.xml" />
  <inductionLoop id="311_0" lane="a124_0" pos="-5" freq="1800" file="e1_real_output.xml" />
  <inductionLoop id="312_0" lane="a122_0" pos="-5" freq="1800" file="e1_real_output.xml" />
  <inductionLoop id="313_0" lane="b37_0" pos="-5" freq="1800" file="e1_real_output.xml" />
  <inductionLoop id="317_0" lane="a43[1]_0" pos="-5" freq="1800" file="e1_real_output.xml" />
  <inductionLoop id="318_0" lane="a134_0" pos="-5" freq="1800" file="e1_real_output.xml" />
  <inductionLoop id="365_0" lane="b2[1][0]_0" pos="-5" freq="1800" file="e1_real_output.xml" />
  <inductionLoop id="370_0" lane="a201_0" pos="-5" freq="1800" file="e1_real_output.xml" />
  <inductionLoop id="373_0" lane="a60_0" pos="-5" freq="1800" file="e1_real_output.xml" />
  <inductionLoop id="385_0" lane="a201_0" pos="-5" freq="1800" file="e1_real_output.xml" />
  <inductionLoop id="390_0" lane="b2[1][1][1]b_0" pos="-5" freq="1800" file="e1_real_output.xml" />
  <inductionLoop id="392_0" lane="a117_0" pos="-5" freq="1800" file="e1_real_output.xml" />
  <inductionLoop id="396_0" lane="b71_0" pos="-5" freq="1800" file="e1_real_output.xml" />
  <inductionLoop id="407_0" lane="b53_0" pos="-5" freq="1800" file="e1_real_output.xml" />
  <inductionLoop id="431_0" lane="a204a[0]_0" pos="-5" freq="1800" file="e1_real_output.xml" />
  <inductionLoop id="482_0" lane="a204[1][1]_0" pos="-5" freq="1800" file="e1_real_output.xml" />
  <inductionLoop id="483_0" lane="a203[0]_0" pos="-5" freq="1800" file="e1_real_output.xml" />
  <inductionLoop id="487_0" lane="a204[1][1]_0" pos="-5" freq="1800" file="e1_real_output.xml" />
  <inductionLoop id="488_0" lane="b53_0" pos="-5" freq="1800" file="e1_real_output.xml" />
  <inductionLoop id="489_0" lane="b76_0" pos="-5" freq="1800" file="e1_real_output.xml" />
  <inductionLoop id="496_0" lane="b12_0" pos="-5" freq="1800" file="e1_real_output.xml" />
  <inductionLoop id="565_0" lane="a55_0" pos="-5" freq="1800" file="e1_real_output.xml" />
  <inductionLoop id="567_0" lane="b17[1]_0" pos="-5" freq="1800" file="e1_real_output.xml" />
  <inductionLoop id="649_0" lane="a11_0" pos="-5" freq="1800" file="e1_real_output.xml" />
  <inductionLoop id="660_0" lane="a104_0" pos="-5" freq="1800" file="e1_real_output.xml" />
  <inductionLoop id="731_0" lane="a55_0" pos="-5" freq="1800" file="e1_real_output.xml" />
</additional>