<?xml version='1.0' encoding='utf-8'?>
<additional xmlns:xsi="http://www.w3.org/2001/XMLSchema-instance" xsi:noNamespaceSchemaLocation="http://sumo.dlr.de/xsd/additional_file.xsd">
    <inductionLoop id="2" lane="23276104_0" pos="121.02" file="C:\Users\manfr\PycharmProjects\IntelliFlowTwin/sumoenv/output/detector.out.xml" freq="3600" friendlyPos="True" />
    <inductionLoop id="603" lane="25077716#2_0" pos="153.68" file="C:\Users\manfr\PycharmProjects\IntelliFlowTwin/sumoenv/output/detector.out.xml" freq="3600" friendlyPos="True" />
    <inductionLoop id="613" lane="-217109091#1_1" pos="51.34" file="C:\Users\manfr\PycharmProjects\IntelliFlowTwin/sumoenv/output/detector.out.xml" freq="3600" friendlyPos="True" />
    <inductionLoop id="626" lane="-32003370#1_1" pos="16.88" file="C:\Users\manfr\PycharmProjects\IntelliFlowTwin/sumoenv/output/detector.out.xml" freq="3600" friendlyPos="True" />
    <inductionLoop id="646" lane="23288767#6_0" pos="0.00" file="C:\Users\manfr\PycharmProjects\IntelliFlowTwin/sumoenv/output/detector.out.xml" freq="3600" friendlyPos="True" />
    <inductionLoop id="649" lane="23277216#0_1" pos="0.00" file="C:\Users\manfr\PycharmProjects\IntelliFlowTwin/sumoenv/output/detector.out.xml" freq="3600" friendlyPos="True" />
    <inductionLoop id="650" lane="23277216#0_0" pos="0.00" file="C:\Users\manfr\PycharmProjects\IntelliFlowTwin/sumoenv/output/detector.out.xml" freq="3600" friendlyPos="True" />
    <inductionLoop id="827" lane="-119742504#3_0" pos="0.00" file="C:\Users\manfr\PycharmProjects\IntelliFlowTwin/sumoenv/output/detector.out.xml" freq="3600" friendlyPos="True" />
    <inductionLoop id="844" lane="24148583_0" pos="37.30" file="C:\Users\manfr\PycharmProjects\IntelliFlowTwin/sumoenv/output/detector.out.xml" freq="3600" friendlyPos="True" />
    <inductionLoop id="847" lane="23275345#0_0" pos="22.95" file="C:\Users\manfr\PycharmProjects\IntelliFlowTwin/sumoenv/output/detector.out.xml" freq="3600" friendlyPos="True" />
    <inductionLoop id="591" lane="34395278#0_2" pos="11.26" file="C:\Users\manfr\PycharmProjects\IntelliFlowTwin/sumoenv/output/detector.out.xml" freq="3600" friendlyPos="True" />
    <inductionLoop id="539" lane="148826456_0" pos="17.58" file="C:\Users\manfr\PycharmProjects\IntelliFlowTwin/sumoenv/output/detector.out.xml" freq="3600" friendlyPos="True" />
    <inductionLoop id="543" lane="23277314#0_1" pos="0.00" file="C:\Users\manfr\PycharmProjects\IntelliFlowTwin/sumoenv/output/detector.out.xml" freq="3600" friendlyPos="True" />
    <inductionLoop id="550" lane="28771409_0" pos="20.15" file="C:\Users\manfr\PycharmProjects\IntelliFlowTwin/sumoenv/output/detector.out.xml" freq="3600" friendlyPos="True" />
    <inductionLoop id="553" lane="23277314#1_1" pos="24.06" file="C:\Users\manfr\PycharmProjects\IntelliFlowTwin/sumoenv/output/detector.out.xml" freq="3600" friendlyPos="True" />
    <inductionLoop id="555" lane="23277314#0_1" pos="41.93" file="C:\Users\manfr\PycharmProjects\IntelliFlowTwin/sumoenv/output/detector.out.xml" freq="3600" friendlyPos="True" />
    <inductionLoop id="558" lane="23189159_0" pos="0.00" file="C:\Users\manfr\PycharmProjects\IntelliFlowTwin/sumoenv/output/detector.out.xml" freq="3600" friendlyPos="True" />
    <inductionLoop id="559" lane="23277216#0_1" pos="129.77" file="C:\Users\manfr\PycharmProjects\IntelliFlowTwin/sumoenv/output/detector.out.xml" freq="3600" friendlyPos="True" />
    <inductionLoop id="567" lane="150018091#1_1" pos="15.46" file="C:\Users\manfr\PycharmProjects\IntelliFlowTwin/sumoenv/output/detector.out.xml" freq="3600" friendlyPos="True" />
    <inductionLoop id="568" lane="23184327#1_2" pos="30.80" file="C:\Users\manfr\PycharmProjects\IntelliFlowTwin/sumoenv/output/detector.out.xml" freq="3600" friendlyPos="True" />
    <inductionLoop id="576" lane="39673908#0_0" pos="0.00" file="C:\Users\manfr\PycharmProjects\IntelliFlowTwin/sumoenv/output/detector.out.xml" freq="3600" friendlyPos="True" />
    <inductionLoop id="580" lane="-39673908#0_0" pos="21.22" file="C:\Users\manfr\PycharmProjects\IntelliFlowTwin/sumoenv/output/detector.out.xml" freq="3600" friendlyPos="True" />
    <inductionLoop id="587" lane="39673908#1_1" pos="15.86" file="C:\Users\manfr\PycharmProjects\IntelliFlowTwin/sumoenv/output/detector.out.xml" freq="3600" friendlyPos="True" />
    <inductionLoop id="589" lane="34395064#2_0" pos="32.39" file="C:\Users\manfr\PycharmProjects\IntelliFlowTwin/sumoenv/output/detector.out.xml" freq="3600" friendlyPos="True" />
    <inductionLoop id="719" lane="253811695#2_0" pos="17.56" file="C:\Users\manfr\PycharmProjects\IntelliFlowTwin/sumoenv/output/detector.out.xml" freq="3600" friendlyPos="True" />
    <inductionLoop id="906" lane="-49403726#1_0" pos="111.11" file="C:\Users\manfr\PycharmProjects\IntelliFlowTwin/sumoenv/output/detector.out.xml" freq="3600" friendlyPos="True" />
    <inductionLoop id="909" lane="23296256#1_0" pos="14.82" file="C:\Users\manfr\PycharmProjects\IntelliFlowTwin/sumoenv/output/detector.out.xml" freq="3600" friendlyPos="True" />
    <inductionLoop id="811" lane="135982510#0_1" pos="20.71" file="C:\Users\manfr\PycharmProjects\IntelliFlowTwin/sumoenv/output/detector.out.xml" freq="3600" friendlyPos="True" />
    <inductionLoop id="808" lane="-135982498#0_0" pos="9.53" file="C:\Users\manfr\PycharmProjects\IntelliFlowTwin/sumoenv/output/detector.out.xml" freq="3600" friendlyPos="True" />
    <inductionLoop id="801" lane="135982489_0" pos="26.59" file="C:\Users\manfr\PycharmProjects\IntelliFlowTwin/sumoenv/output/detector.out.xml" freq="3600" friendlyPos="True" />
    <inductionLoop id="720" lane="23510937_0" pos="16.54" file="C:\Users\manfr\PycharmProjects\IntelliFlowTwin/sumoenv/output/detector.out.xml" freq="3600" friendlyPos="True" />
    <inductionLoop id="726" lane="149955205#2_0" pos="12.72" file="C:\Users\manfr\PycharmProjects\IntelliFlowTwin/sumoenv/output/detector.out.xml" freq="3600" friendlyPos="True" />
    <inductionLoop id="728" lane="-260210046_0" pos="4.85" file="C:\Users\manfr\PycharmProjects\IntelliFlowTwin/sumoenv/output/detector.out.xml" freq="3600" friendlyPos="True" />
    <inductionLoop id="731" lane="83078456#0_0" pos="60.19" file="C:\Users\manfr\PycharmProjects\IntelliFlowTwin/sumoenv/output/detector.out.xml" freq="3600" friendlyPos="True" />
    <inductionLoop id="759" lane="26955839_0" pos="4.33" file="C:\Users\manfr\PycharmProjects\IntelliFlowTwin/sumoenv/output/detector.out.xml" freq="3600" friendlyPos="True" />
    <inductionLoop id="766" lane="23296318_0" pos="116.80" file="C:\Users\manfr\PycharmProjects\IntelliFlowTwin/sumoenv/output/detector.out.xml" freq="3600" friendlyPos="True" />
    <inductionLoop id="791" lane="132106763_0" pos="1.65" file="C:\Users\manfr\PycharmProjects\IntelliFlowTwin/sumoenv/output/detector.out.xml" freq="3600" friendlyPos="True" />
    <inductionLoop id="664" lane="34524142#2_0" pos="0.77" file="C:\Users\manfr\PycharmProjects\IntelliFlowTwin/sumoenv/output/detector.out.xml" freq="3600" friendlyPos="True" />
    <inductionLoop id="185" lane="150338571_0" pos="150.83" file="C:\Users\manfr\PycharmProjects\IntelliFlowTwin/sumoenv/output/detector.out.xml" freq="3600" friendlyPos="True" />
    <inductionLoop id="207" lane="23602918#2_0" pos="45.79" file="C:\Users\manfr\PycharmProjects\IntelliFlowTwin/sumoenv/output/detector.out.xml" freq="3600" friendlyPos="True" />
    <inductionLoop id="297" lane="299421433_0" pos="40.09" file="C:\Users\manfr\PycharmProjects\IntelliFlowTwin/sumoenv/output/detector.out.xml" freq="3600" friendlyPos="True" />
    <inductionLoop id="326" lane="301242139_1" pos="125.64" file="C:\Users\manfr\PycharmProjects\IntelliFlowTwin/sumoenv/output/detector.out.xml" freq="3600" friendlyPos="True" />
    <inductionLoop id="261" lane="32497919#2_0" pos="25.84" file="C:\Users\manfr\PycharmProjects\IntelliFlowTwin/sumoenv/output/detector.out.xml" freq="3600" friendlyPos="True" />
    <inductionLoop id="160" lane="25155146#2_0" pos="10.50" file="C:\Users\manfr\PycharmProjects\IntelliFlowTwin/sumoenv/output/detector.out.xml" freq="3600" friendlyPos="True" />
    <inductionLoop id="159" lane="25077716#0_0" pos="178.82" file="C:\Users\manfr\PycharmProjects\IntelliFlowTwin/sumoenv/output/detector.out.xml" freq="3600" friendlyPos="True" />
    <inductionLoop id="39" lane="23291373#0_0" pos="0.00" file="C:\Users\manfr\PycharmProjects\IntelliFlowTwin/sumoenv/output/detector.out.xml" freq="3600" friendlyPos="True" />
    <inductionLoop id="52" lane="23289636#0_0" pos="0.00" file="C:\Users\manfr\PycharmProjects\IntelliFlowTwin/sumoenv/output/detector.out.xml" freq="3600" friendlyPos="True" />
    <inductionLoop id="60" lane="-23289817_0" pos="77.48" file="C:\Users\manfr\PycharmProjects\IntelliFlowTwin/sumoenv/output/detector.out.xml" freq="3600" friendlyPos="True" />
    <inductionLoop id="279" lane="23276195#0_0" pos="112.80" file="C:\Users\manfr\PycharmProjects\IntelliFlowTwin/sumoenv/output/detector.out.xml" freq="3600" friendlyPos="True" />
    <inductionLoop id="84" lane="23289636#1_0" pos="81.76" file="C:\Users\manfr\PycharmProjects\IntelliFlowTwin/sumoenv/output/detector.out.xml" freq="3600" friendlyPos="True" />
    <inductionLoop id="138" lane="56061726_0" pos="69.45" file="C:\Users\manfr\PycharmProjects\IntelliFlowTwin/sumoenv/output/detector.out.xml" freq="3600" friendlyPos="True" />
    <inductionLoop id="916" lane="260210045_0" pos="18.06" file="C:\Users\manfr\PycharmProjects\IntelliFlowTwin/sumoenv/output/detector.out.xml" freq="3600" friendlyPos="True" />
    <inductionLoop id="301" lane="130072847#1_0" pos="160.48" file="C:\Users\manfr\PycharmProjects\IntelliFlowTwin/sumoenv/output/detector.out.xml" freq="3600" friendlyPos="True" />
    <inductionLoop id="466" lane="23289636#0_0" pos="4.18" file="C:\Users\manfr\PycharmProjects\IntelliFlowTwin/sumoenv/output/detector.out.xml" freq="3600" friendlyPos="True" />
    <inductionLoop id="470" lane="23289636#0_0" pos="3.65" file="C:\Users\manfr\PycharmProjects\IntelliFlowTwin/sumoenv/output/detector.out.xml" freq="3600" friendlyPos="True" />
    <inductionLoop id="481" lane="23289608#3_1" pos="43.06" file="C:\Users\manfr\PycharmProjects\IntelliFlowTwin/sumoenv/output/detector.out.xml" freq="3600" friendlyPos="True" />
    <inductionLoop id="484" lane="23289608#0_0" pos="14.86" file="C:\Users\manfr\PycharmProjects\IntelliFlowTwin/sumoenv/output/detector.out.xml" freq="3600" friendlyPos="True" />
    <inductionLoop id="507" lane="-23289636#1_0" pos="0.00" file="C:\Users\manfr\PycharmProjects\IntelliFlowTwin/sumoenv/output/detector.out.xml" freq="3600" friendlyPos="True" />
    <inductionLoop id="518" lane="40062856_0" pos="0.00" file="C:\Users\manfr\PycharmProjects\IntelliFlowTwin/sumoenv/output/detector.out.xml" freq="3600" friendlyPos="True" />
    <inductionLoop id="519" lane="96199140#3_0" pos="97.69" file="C:\Users\manfr\PycharmProjects\IntelliFlowTwin/sumoenv/output/detector.out.xml" freq="3600" friendlyPos="True" />
    <inductionLoop id="608" lane="-23296535#9_0" pos="0.00" file="C:\Users\manfr\PycharmProjects\IntelliFlowTwin/sumoenv/output/detector.out.xml" freq="3600" friendlyPos="True" />
    <inductionLoop id="654" lane="23296535#5_0" pos="24.89" file="C:\Users\manfr\PycharmProjects\IntelliFlowTwin/sumoenv/output/detector.out.xml" freq="3600" friendlyPos="True" />
    <inductionLoop id="424" lane="23289833#0_0" pos="79.73" file="C:\Users\manfr\PycharmProjects\IntelliFlowTwin/sumoenv/output/detector.out.xml" freq="3600" friendlyPos="True" />
    <inductionLoop id="422" lane="23289833#0_0" pos="101.87" file="C:\Users\manfr\PycharmProjects\IntelliFlowTwin/sumoenv/output/detector.out.xml" freq="3600" friendlyPos="True" />
    <inductionLoop id="323" lane="55302015#4_0" pos="3.39" file="C:\Users\manfr\PycharmProjects\IntelliFlowTwin/sumoenv/output/detector.out.xml" freq="3600" friendlyPos="True" />
    <inductionLoop id="368" lane="-260481406#8_1" pos="1.99" file="C:\Users\manfr\PycharmProjects\IntelliFlowTwin/sumoenv/output/detector.out.xml" freq="3600" friendlyPos="True" />
    <inductionLoop id="370" lane="-260481406#9_0" pos="12.50" file="C:\Users\manfr\PycharmProjects\IntelliFlowTwin/sumoenv/output/detector.out.xml" freq="3600" friendlyPos="True" />
    <inductionLoop id="371" lane="260481406#10_0" pos="11.43" file="C:\Users\manfr\PycharmProjects\IntelliFlowTwin/sumoenv/output/detector.out.xml" freq="3600" friendlyPos="True" />
    <inductionLoop id="379" lane="-183743755_0" pos="21.75" file="C:\Users\manfr\PycharmProjects\IntelliFlowTwin/sumoenv/output/detector.out.xml" freq="3600" friendlyPos="True" />
    <inductionLoop id="346" lane="39216791#3_0" pos="4.38" file="C:\Users\manfr\PycharmProjects\IntelliFlowTwin/sumoenv/output/detector.out.xml" freq="3600" friendlyPos="True" />
    <inductionLoop id="356" lane="23271629#0_0" pos="7.53" file="C:\Users\manfr\PycharmProjects\IntelliFlowTwin/sumoenv/output/detector.out.xml" freq="3600" friendlyPos="True" />
    <inductionLoop id="358" lane="23184464#0_0" pos="14.93" file="C:\Users\manfr\PycharmProjects\IntelliFlowTwin/sumoenv/output/detector.out.xml" freq="3600" friendlyPos="True" />
    <inductionLoop id="384" lane="-8116113#9_0" pos="13.77" file="C:\Users\manfr\PycharmProjects\IntelliFlowTwin/sumoenv/output/detector.out.xml" freq="3600" friendlyPos="True" />
    <inductionLoop id="435" lane="35710322_0" pos="174.21" file="C:\Users\manfr\PycharmProjects\IntelliFlowTwin/sumoenv/output/detector.out.xml" freq="3600" friendlyPos="True" />
    <inductionLoop id="355" lane="23271767#0_0" pos="3.04" file="C:\Users\manfr\PycharmProjects\IntelliFlowTwin/sumoenv/output/detector.out.xml" freq="3600" friendlyPos="True" />
    <inductionLoop id="10" lane="23276410#1_0" pos="73.22" file="C:\Users\manfr\PycharmProjects\IntelliFlowTwin/sumoenv/output/detector.out.xml" freq="3600" friendlyPos="True" />
    <inductionLoop id="15" lane="236093296#1_0" pos="0.00" file="C:\Users\manfr\PycharmProjects\IntelliFlowTwin/sumoenv/output/detector.out.xml" freq="3600" friendlyPos="True" />
    <inductionLoop id="615" lane="40872975#2_1" pos="21.27" file="C:\Users\manfr\PycharmProjects\IntelliFlowTwin/sumoenv/output/detector.out.xml" freq="3600" friendlyPos="True" />
    <inductionLoop id="624" lane="77960510#0_1" pos="128.68" file="C:\Users\manfr\PycharmProjects\IntelliFlowTwin/sumoenv/output/detector.out.xml" freq="3600" friendlyPos="True" />
    <inductionLoop id="639" lane="23288787#3_0" pos="18.78" file="C:\Users\manfr\PycharmProjects\IntelliFlowTwin/sumoenv/output/detector.out.xml" freq="3600" friendlyPos="True" />
    <inductionLoop id="640" lane="34395278#1_1" pos="17.26" file="C:\Users\manfr\PycharmProjects\IntelliFlowTwin/sumoenv/output/detector.out.xml" freq="3600" friendlyPos="True" />
    <inductionLoop id="641" lane="34395278#1_0" pos="15.34" file="C:\Users\manfr\PycharmProjects\IntelliFlowTwin/sumoenv/output/detector.out.xml" freq="3600" friendlyPos="True" />
    <inductionLoop id="645" lane="-150608#0_0" pos="157.46" file="C:\Users\manfr\PycharmProjects\IntelliFlowTwin/sumoenv/output/detector.out.xml" freq="3600" friendlyPos="True" />
    <inductionLoop id="643" lane="43469290_2" pos="17.55" file="C:\Users\manfr\PycharmProjects\IntelliFlowTwin/sumoenv/output/detector.out.xml" freq="3600" friendlyPos="True" />
    <inductionLoop id="648" lane="23184327#4_1" pos="12.23" file="C:\Users\manfr\PycharmProjects\IntelliFlowTwin/sumoenv/output/detector.out.xml" freq="3600" friendlyPos="True" />
    <inductionLoop id="651" lane="23296535#8_0" pos="166.92" file="C:\Users\manfr\PycharmProjects\IntelliFlowTwin/sumoenv/output/detector.out.xml" freq="3600" friendlyPos="True" />
    <inductionLoop id="830" lane="-119742504#1_0" pos="14.51" file="C:\Users\manfr\PycharmProjects\IntelliFlowTwin/sumoenv/output/detector.out.xml" freq="3600" friendlyPos="True" />
    <inductionLoop id="854" lane="-24589437#0_0" pos="14.55" file="C:\Users\manfr\PycharmProjects\IntelliFlowTwin/sumoenv/output/detector.out.xml" freq="3600" friendlyPos="True" />
    <inductionLoop id="855" lane="24589437#2_0" pos="14.59" file="C:\Users\manfr\PycharmProjects\IntelliFlowTwin/sumoenv/output/detector.out.xml" freq="3600" friendlyPos="True" />
    <inductionLoop id="590" lane="-23332076#1_1" pos="35.05" file="C:\Users\manfr\PycharmProjects\IntelliFlowTwin/sumoenv/output/detector.out.xml" freq="3600" friendlyPos="True" />
    <inductionLoop id="679" lane="148678215#0_0" pos="7.74" file="C:\Users\manfr\PycharmProjects\IntelliFlowTwin/sumoenv/output/detector.out.xml" freq="3600" friendlyPos="True" />
    <inductionLoop id="680" lane="151824736#2_2" pos="38.63" file="C:\Users\manfr\PycharmProjects\IntelliFlowTwin/sumoenv/output/detector.out.xml" freq="3600" friendlyPos="True" />
    <inductionLoop id="549" lane="148808931_0" pos="5.87" file="C:\Users\manfr\PycharmProjects\IntelliFlowTwin/sumoenv/output/detector.out.xml" freq="3600" friendlyPos="True" />
    <inductionLoop id="554" lane="23277314#0_1" pos="40.34" file="C:\Users\manfr\PycharmProjects\IntelliFlowTwin/sumoenv/output/detector.out.xml" freq="3600" friendlyPos="True" />
    <inductionLoop id="564" lane="23184329#0_1" pos="27.74" file="C:\Users\manfr\PycharmProjects\IntelliFlowTwin/sumoenv/output/detector.out.xml" freq="3600" friendlyPos="True" />
    <inductionLoop id="584" lane="-226263949#1_0" pos="96.99" file="C:\Users\manfr\PycharmProjects\IntelliFlowTwin/sumoenv/output/detector.out.xml" freq="3600" friendlyPos="True" />
    <inductionLoop id="586" lane="39673908#0_1" pos="7.11" file="C:\Users\manfr\PycharmProjects\IntelliFlowTwin/sumoenv/output/detector.out.xml" freq="3600" friendlyPos="True" />
    <inductionLoop id="864" lane="23213604#0_0" pos="0.80" file="C:\Users\manfr\PycharmProjects\IntelliFlowTwin/sumoenv/output/detector.out.xml" freq="3600" friendlyPos="True" />
    <inductionLoop id="865" lane="23275345#6_0" pos="9.10" file="C:\Users\manfr\PycharmProjects\IntelliFlowTwin/sumoenv/output/detector.out.xml" freq="3600" friendlyPos="True" />
    <inductionLoop id="895" lane="23210836#0_1" pos="5.00" file="C:\Users\manfr\PycharmProjects\IntelliFlowTwin/sumoenv/output/detector.out.xml" freq="3600" friendlyPos="True" />
    <inductionLoop id="792" lane="132106761#0_0" pos="35.43" file="C:\Users\manfr\PycharmProjects\IntelliFlowTwin/sumoenv/output/detector.out.xml" freq="3600" friendlyPos="True" />
    <inductionLoop id="803" lane="23288872#5_0" pos="46.65" file="C:\Users\manfr\PycharmProjects\IntelliFlowTwin/sumoenv/output/detector.out.xml" freq="3600" friendlyPos="True" />
    <inductionLoop id="806" lane="23288888#3_1" pos="11.36" file="C:\Users\manfr\PycharmProjects\IntelliFlowTwin/sumoenv/output/detector.out.xml" freq="3600" friendlyPos="True" />
    <inductionLoop id="814" lane="23288923#2_2" pos="11.02" file="C:\Users\manfr\PycharmProjects\IntelliFlowTwin/sumoenv/output/detector.out.xml" freq="3600" friendlyPos="True" />
    <inductionLoop id="820" lane="23288931#4_1" pos="30.30" file="C:\Users\manfr\PycharmProjects\IntelliFlowTwin/sumoenv/output/detector.out.xml" freq="3600" friendlyPos="True" />
    <inductionLoop id="876" lane="260210806#2_0" pos="14.04" file="C:\Users\manfr\PycharmProjects\IntelliFlowTwin/sumoenv/output/detector.out.xml" freq="3600" friendlyPos="True" />
    <inductionLoop id="880" lane="23275370#3_1" pos="15.43" file="C:\Users\manfr\PycharmProjects\IntelliFlowTwin/sumoenv/output/detector.out.xml" freq="3600" friendlyPos="True" />
    <inductionLoop id="917" lane="150052414#0_0" pos="22.02" file="C:\Users\manfr\PycharmProjects\IntelliFlowTwin/sumoenv/output/detector.out.xml" freq="3600" friendlyPos="True" />
    <inductionLoop id="918" lane="-150052413#1_0" pos="31.16" file="C:\Users\manfr\PycharmProjects\IntelliFlowTwin/sumoenv/output/detector.out.xml" freq="3600" friendlyPos="True" />
    <inductionLoop id="919" lane="26955913_0" pos="38.84" file="C:\Users\manfr\PycharmProjects\IntelliFlowTwin/sumoenv/output/detector.out.xml" freq="3600" friendlyPos="True" />
    <inductionLoop id="896" lane="23213150#1_2" pos="28.17" file="C:\Users\manfr\PycharmProjects\IntelliFlowTwin/sumoenv/output/detector.out.xml" freq="3600" friendlyPos="True" />
    <inductionLoop id="721" lane="23296256#0_0" pos="5.07" file="C:\Users\manfr\PycharmProjects\IntelliFlowTwin/sumoenv/output/detector.out.xml" freq="3600" friendlyPos="True" />
    <inductionLoop id="725" lane="23296246_0" pos="2.54" file="C:\Users\manfr\PycharmProjects\IntelliFlowTwin/sumoenv/output/detector.out.xml" freq="3600" friendlyPos="True" />
    <inductionLoop id="666" lane="131881840#2_1" pos="12.00" file="C:\Users\manfr\PycharmProjects\IntelliFlowTwin/sumoenv/output/detector.out.xml" freq="3600" friendlyPos="True" />
    <inductionLoop id="727" lane="149955205#1_1" pos="316.33" file="C:\Users\manfr\PycharmProjects\IntelliFlowTwin/sumoenv/output/detector.out.xml" freq="3600" friendlyPos="True" />
    <inductionLoop id="772" lane="120634988#2_0" pos="47.69" file="C:\Users\manfr\PycharmProjects\IntelliFlowTwin/sumoenv/output/detector.out.xml" freq="3600" friendlyPos="True" />
    <inductionLoop id="774" lane="135982515#5_1" pos="13.60" file="C:\Users\manfr\PycharmProjects\IntelliFlowTwin/sumoenv/output/detector.out.xml" freq="3600" friendlyPos="True" />
    <inductionLoop id="634" lane="23296535#8_0" pos="54.34" file="C:\Users\manfr\PycharmProjects\IntelliFlowTwin/sumoenv/output/detector.out.xml" freq="3600" friendlyPos="True" />
    <inductionLoop id="609" lane="-23296535#7_0" pos="30.91" file="C:\Users\manfr\PycharmProjects\IntelliFlowTwin/sumoenv/output/detector.out.xml" freq="3600" friendlyPos="True" />
    <inductionLoop id="283" lane="119742504#2_0" pos="235.31" file="C:\Users\manfr\PycharmProjects\IntelliFlowTwin/sumoenv/output/detector.out.xml" freq="3600" friendlyPos="True" />
    <inductionLoop id="313" lane="23213604#0_1" pos="14.82" file="C:\Users\manfr\PycharmProjects\IntelliFlowTwin/sumoenv/output/detector.out.xml" freq="3600" friendlyPos="True" />
    <inductionLoop id="265" lane="-135982498#4_0" pos="311.46" file="C:\Users\manfr\PycharmProjects\IntelliFlowTwin/sumoenv/output/detector.out.xml" freq="3600" friendlyPos="True" />
    <inductionLoop id="175" lane="23277216#0_1" pos="0.70" file="C:\Users\manfr\PycharmProjects\IntelliFlowTwin/sumoenv/output/detector.out.xml" freq="3600" friendlyPos="True" />
    <inductionLoop id="170" lane="148678210#2_0" pos="174.88" file="C:\Users\manfr\PycharmProjects\IntelliFlowTwin/sumoenv/output/detector.out.xml" freq="3600" friendlyPos="True" />
    <inductionLoop id="158" lane="-217109091#2_0" pos="0.00" file="C:\Users\manfr\PycharmProjects\IntelliFlowTwin/sumoenv/output/detector.out.xml" freq="3600" friendlyPos="True" />
    <inductionLoop id="70" lane="35204667#2_0" pos="123.70" file="C:\Users\manfr\PycharmProjects\IntelliFlowTwin/sumoenv/output/detector.out.xml" freq="3600" friendlyPos="True" />
    <inductionLoop id="27" lane="23837909#5_1" pos="191.73" file="C:\Users\manfr\PycharmProjects\IntelliFlowTwin/sumoenv/output/detector.out.xml" freq="3600" friendlyPos="True" />
    <inductionLoop id="28" lane="23288957#5_1" pos="149.33" file="C:\Users\manfr\PycharmProjects\IntelliFlowTwin/sumoenv/output/detector.out.xml" freq="3600" friendlyPos="True" />
    <inductionLoop id="56" lane="23289636#0_0" pos="14.39" file="C:\Users\manfr\PycharmProjects\IntelliFlowTwin/sumoenv/output/detector.out.xml" freq="3600" friendlyPos="True" />
    <inductionLoop id="270" lane="236468429#2_0" pos="31.54" file="C:\Users\manfr\PycharmProjects\IntelliFlowTwin/sumoenv/output/detector.out.xml" freq="3600" friendlyPos="True" />
    <inductionLoop id="186" lane="-150606#0_0" pos="187.25" file="C:\Users\manfr\PycharmProjects\IntelliFlowTwin/sumoenv/output/detector.out.xml" freq="3600" friendlyPos="True" />
    <inductionLoop id="130" lane="23277216#0_1" pos="152.09" file="C:\Users\manfr\PycharmProjects\IntelliFlowTwin/sumoenv/output/detector.out.xml" freq="3600" friendlyPos="True" />
    <inductionLoop id="272" lane="135982476#1_0" pos="204.23" file="C:\Users\manfr\PycharmProjects\IntelliFlowTwin/sumoenv/output/detector.out.xml" freq="3600" friendlyPos="True" />
    <inductionLoop id="426" lane="23289833#0_0" pos="0.00" file="C:\Users\manfr\PycharmProjects\IntelliFlowTwin/sumoenv/output/detector.out.xml" freq="3600" friendlyPos="True" />
    <inductionLoop id="430" lane="23289833#2_0" pos="0.00" file="C:\Users\manfr\PycharmProjects\IntelliFlowTwin/sumoenv/output/detector.out.xml" freq="3600" friendlyPos="True" />
    <inductionLoop id="476" lane="23289817_0" pos="9.60" file="C:\Users\manfr\PycharmProjects\IntelliFlowTwin/sumoenv/output/detector.out.xml" freq="3600" friendlyPos="True" />
    <inductionLoop id="483" lane="151772099_1" pos="28.58" file="C:\Users\manfr\PycharmProjects\IntelliFlowTwin/sumoenv/output/detector.out.xml" freq="3600" friendlyPos="True" />
    <inductionLoop id="495" lane="323422052#0_0" pos="0.00" file="C:\Users\manfr\PycharmProjects\IntelliFlowTwin/sumoenv/output/detector.out.xml" freq="3600" friendlyPos="True" />
    <inductionLoop id="509" lane="23289833#0_0" pos="101.55" file="C:\Users\manfr\PycharmProjects\IntelliFlowTwin/sumoenv/output/detector.out.xml" freq="3600" friendlyPos="True" />
    <inductionLoop id="402" lane="23288944#0_2" pos="19.87" file="C:\Users\manfr\PycharmProjects\IntelliFlowTwin/sumoenv/output/detector.out.xml" freq="3600" friendlyPos="True" />
    <inductionLoop id="400" lane="23271744_0" pos="9.53" file="C:\Users\manfr\PycharmProjects\IntelliFlowTwin/sumoenv/output/detector.out.xml" freq="3600" friendlyPos="True" />
    <inductionLoop id="494" lane="96199140#6_0" pos="130.86" file="C:\Users\manfr\PycharmProjects\IntelliFlowTwin/sumoenv/output/detector.out.xml" freq="3600" friendlyPos="True" />
    <inductionLoop id="493" lane="-35710323_0" pos="0.00" file="C:\Users\manfr\PycharmProjects\IntelliFlowTwin/sumoenv/output/detector.out.xml" freq="3600" friendlyPos="True" />
    <inductionLoop id="362" lane="-260481406#4_1" pos="6.72" file="C:\Users\manfr\PycharmProjects\IntelliFlowTwin/sumoenv/output/detector.out.xml" freq="3600" friendlyPos="True" />
    <inductionLoop id="369" lane="260481406#9_0" pos="13.99" file="C:\Users\manfr\PycharmProjects\IntelliFlowTwin/sumoenv/output/detector.out.xml" freq="3600" friendlyPos="True" />
    <inductionLoop id="396" lane="33831424_0" pos="30.62" file="C:\Users\manfr\PycharmProjects\IntelliFlowTwin/sumoenv/output/detector.out.xml" freq="3600" friendlyPos="True" />
    <inductionLoop id="359" lane="260898977#0_0" pos="13.35" file="C:\Users\manfr\PycharmProjects\IntelliFlowTwin/sumoenv/output/detector.out.xml" freq="3600" friendlyPos="True" />
    <inductionLoop id="383" lane="32479333#0_0" pos="14.91" file="C:\Users\manfr\PycharmProjects\IntelliFlowTwin/sumoenv/output/detector.out.xml" freq="3600" friendlyPos="True" />
    <inductionLoop id="380" lane="-32942500#1_0" pos="9.84" file="C:\Users\manfr\PycharmProjects\IntelliFlowTwin/sumoenv/output/detector.out.xml" freq="3600" friendlyPos="True" />
    <inductionLoop id="5" lane="-23271762#2_0" pos="4.25" file="C:\Users\manfr\PycharmProjects\IntelliFlowTwin/sumoenv/output/detector.out.xml" freq="3600" friendlyPos="True" />
    <inductionLoop id="819" lane="23295986#1_1" pos="42.30" file="C:\Users\manfr\PycharmProjects\IntelliFlowTwin/sumoenv/output/detector.out.xml" freq="3600" friendlyPos="True" />
    <inductionLoop id="271" lane="292179033#7_2" pos="228.10" file="C:\Users\manfr\PycharmProjects\IntelliFlowTwin/sumoenv/output/detector.out.xml" freq="3600" friendlyPos="True" />
    <inductionLoop id="264" lane="150029324_0" pos="0.00" file="C:\Users\manfr\PycharmProjects\IntelliFlowTwin/sumoenv/output/detector.out.xml" freq="3600" friendlyPos="True" />
    <inductionLoop id="298" lane="32566032_0" pos="133.76" file="C:\Users\manfr\PycharmProjects\IntelliFlowTwin/sumoenv/output/detector.out.xml" freq="3600" friendlyPos="True" />
    <inductionLoop id="296" lane="-299421427#0_0" pos="109.27" file="C:\Users\manfr\PycharmProjects\IntelliFlowTwin/sumoenv/output/detector.out.xml" freq="3600" friendlyPos="True" />
    <inductionLoop id="213" lane="216686365_0" pos="40.37" file="C:\Users\manfr\PycharmProjects\IntelliFlowTwin/sumoenv/output/detector.out.xml" freq="3600" friendlyPos="True" />
    <inductionLoop id="295" lane="-32566100#0_0" pos="65.01" file="C:\Users\manfr\PycharmProjects\IntelliFlowTwin/sumoenv/output/detector.out.xml" freq="3600" friendlyPos="True" />
    <inductionLoop id="401" lane="23288945#0_1" pos="8.63" file="C:\Users\manfr\PycharmProjects\IntelliFlowTwin/sumoenv/output/detector.out.xml" freq="3600" friendlyPos="True" />
    <inductionLoop id="497" lane="96199140#1_0" pos="12.97" file="C:\Users\manfr\PycharmProjects\IntelliFlowTwin/sumoenv/output/detector.out.xml" freq="3600" friendlyPos="True" />
    <inductionLoop id="496" lane="156231178#3_1" pos="26.92" file="C:\Users\manfr\PycharmProjects\IntelliFlowTwin/sumoenv/output/detector.out.xml" freq="3600" friendlyPos="True" />
    <inductionLoop id="389" lane="11480374#9_0" pos="59.53" file="C:\Users\manfr\PycharmProjects\IntelliFlowTwin/sumoenv/output/detector.out.xml" freq="3600" friendlyPos="True" />
    <inductionLoop id="388" lane="11480374#0_0" pos="15.91" file="C:\Users\manfr\PycharmProjects\IntelliFlowTwin/sumoenv/output/detector.out.xml" freq="3600" friendlyPos="True" />
    <inductionLoop id="386" lane="-32942505#7_0" pos="8.69" file="C:\Users\manfr\PycharmProjects\IntelliFlowTwin/sumoenv/output/detector.out.xml" freq="3600" friendlyPos="True" />
    <inductionLoop id="351" lane="32942500#0_0" pos="15.04" file="C:\Users\manfr\PycharmProjects\IntelliFlowTwin/sumoenv/output/detector.out.xml" freq="3600" friendlyPos="True" />
    <inductionLoop id="381" lane="80655879#1_1" pos="3.76" file="C:\Users\manfr\PycharmProjects\IntelliFlowTwin/sumoenv/output/detector.out.xml" freq="3600" friendlyPos="True" />