<?xml version="1.0" encoding="UTF-8"?>

<!-- generated on 2025-01-13 18:24:24.411133 by randomTrips.py v1_21_0+0000-d7b3b481c43
<configuration>
    <net-file value="C:\Users\manfr\PycharmProjects\IntelliFlowTwin\sumoenv\static\full.net.xml"/>
    <output-trip-file value="C:\Users\manfr\PycharmProjects\IntelliFlowTwin\sumoenv\standalone\trips.xml"/>
    <route-file value="C:\Users\manfr\PycharmProjects\IntelliFlowTwin\sumoenv\standalone\sampleRoutes.rou.xml"/>
    <random-departpos value="True"/>
    <random-arrivalpos value="True"/>
    <fringe-factor value="10.0"/>
    <allow-fringe value="True"/>
    <random value="True"/>
    <min-distance.fringe value="1000.0"/>
    <remove-loops value="True"/>
    <random-routing-factor value="10.0"/>
    <validate value="True"/>
</configuration>
-->

<!-- generated on 2025-01-13 18:24:23 by Eclipse SUMO duarouter Version 1.21.0
<duarouterConfiguration xmlns:xsi="http://www.w3.org/2001/XMLSchema-instance" xsi:noNamespaceSchemaLocation="http://sumo.dlr.de/xsd/duarouterConfiguration.xsd">

    <input>
        <net-file value="C:\Users\manfr\PycharmProjects\IntelliFlowTwin\sumoenv\static\full.net.xml"/>
        <route-files value="C:\Users\manfr\PycharmProjects\IntelliFlowTwin\sumoenv\standalone\trips.xml"/>
    </input>

    <output>
        <output-file value="C:\Users\manfr\PycharmProjects\IntelliFlowTwin\sumoenv\standalone\sampleRoutes.rou.xml"/>
        <alternatives-output value="NUL"/>
    </output>

    <processing>
        <remove-loops value="true"/>
        <weights.random-factor value="10.0"/>
    </processing>

    <time>
        <begin value="0"/>
        <end value="3600"/>
    </time>

    <report>
        <no-warnings value="true"/>
        <ignore-errors value="true"/>
        <no-step-log value="true"/>
    </report>

</duarouterConfiguration>
-->

<routes xmlns:xsi="http://www.w3.org/2001/XMLSchema-instance" xsi:noNamespaceSchemaLocation="http://sumo.dlr.de/xsd/routes_file.xsd">
    <vehicle id="1" depart="1.00" departPos="11.39" arrivalPos="0.30">
        <route edges="39673908#3 39673908#4 39673908#5 23288767#0 23288767#2 23288767#3 23288767#4 23288767#5 23288767#6 23288767#7 23288767#8 23288767#9 23277071#0 23277071#2 205519278#1 80653048#0 80653048#1 149899476#1 80653050 43469291#0 293298723#0 293298723#1 23189353 322432842"/>
    </vehicle>
    <vehicle id="7" depart="7.00" departPos="58.54" arrivalPos="10.18">
        <route edges="-140225318 23291164#5 24589437#5 24589437#6 24589437#8 -31743212#2 -31743212#1 23275345#0 23275345#2 23275345#3 23275345#4 23275345#5 23275345#6 23275345#7 23275345#8 23275345#9 23275345#10 23275345#11 149955204 23183655#0 23183655#1 298745601#1 298745601#3 298745601#4 23276348 23276384 23271629#2 23184464#0 23184464#1 135982505#4 135982505#5 135982505#6 135982505#7 135982505#8 23271701#7 95408281#0 95408281#1 132262793 -33489760#1 23271710 23271717#0 33523238#0 33523238#1 -33523355#4 -33523355#3 -33523355#2 -33523355#1 -33523355#0 23276766 248200212#0 248200212#2 33523578#0 292180293 82549440#2 82549440#3 23288944#4"/>
    </vehicle>
    <vehicle id="9" depart="9.00" departPos="41.69" arrivalPos="14.35">
        <route edges="-35916520 163787530#11 163787530#12 163787530#13 163787530#14 163787530#15 163787530#16 163787530#17 163787530#18 163787530#19 163787530#20 163787530#21 163787530#22 163787530#23 23288944#0 23288944#1 23288944#2 23288944#3 23288944#4 23837911#0 23837911#1 23837911#2 -30824033#2 37711918 37711923#0 37711922#0 37711922#1"/>
    </vehicle>
    <vehicle id="12" depart="12.00" departPos="0.16" arrivalPos="20.36">
        <route edges="-37711923#1 -37711923#0 -37711918 30824033#1 231108881 23288931#4 23288931#7 23837909#0 23837909#4 23837909#5 23837909#6 23271744 33757835#0 23271755#0 23271755#2 43469298#2 43469298#4 34521685 -34521601#0"/>
    </vehicle>
    <vehicle id="13" depart="13.00" departPos="18.78" arrivalPos="69.62">
        <route edges="-119095430 -35829123#2 -35829123#0 163787530#10 163787530#11 163787530#12 163787530#13 163787530#14 163787530#15 163787530#16 163787530#17 163787530#18 163787530#19 163787530#20 163787530#21 163787530#22 163787530#23 83202928 23271744 33757835#0 33757835#1 82549439 82549438 23185863#0 23185863#1 82549445 -32942500#1 -32942500#0 -205409334#3 -205409334#1 -205409334#0 -32479333#1 -32942505#7 -32942505#2 -82544186#2 8116114 11480374#0 11480374#2 11480374#3 11480374#4 11480374#6 11480374#7 11480374#8 11480374#9 11480374#10 11480374#11 11480374#12 11480374#13 260898977#0 260898977#1 260898977#2 260898977#3 260898977#4 260898977#5 260898977#6 260898977#7 83078454 23288872#0 -34351517 23288888#5 149955205#0 149955205#1 149955205#2 149955205#3 32064573#0 23275370#3 23275370#5 55302014#0 55302014#2 -31743212#2 -31743212#1 23275345#0 23275345#2 -288787060#3 -32064529"/>
    </vehicle>
    <vehicle id="14" depart="14.00" departPos="45.30" arrivalPos="5.36">
        <route edges="29031047 32242282#0 32242282#1 32242282#2 152026706 23218805 23189293#8 23189293#10 32210009#1 238688553#1 298745600#1 23271629#0 23271629#1 23271629#2 23184464#0 23184464#1 135982505#4 135982505#5 135982505#6 135982505#7 135982505#8 23271701#7 95408281#0 95408281#1 132262793 -33489760#1 23271710 23271717#0 33523238#0 33523238#1 -33523355#4 -33523355#3 -33523355#2 -33523355#1 30959354 33758118"/>
    </vehicle>
    <vehicle id="15" depart="15.00" departPos="28.24" arrivalPos="151.83">
        <route edges="-267416312#1 -267416311#1 148678215#3 148678215#4 -23296535#7 -23296535#6 -34524142#4 -34524142#1 -131881833 --150606#4 --150606#2 --150606#1 -23296623#1 150018080#0 293300505#4 293300503 205519269#0 -23185864#7 -23185864#4 -23185864#3 -260481406#13 -260481406#11 -260481406#9 -260481406#8 -260481406#7 -236093055#1 -236093055#0 -236093054 -34394634#2 -34394634#1 -34394634#0 23218857 23184327#4 23184327#5 34395259#0 -23332076#1 -39673908#4 -39673908#3 171933235#0 171933240#2 41277863 171933238#0 171933238#1"/>
    </vehicle>
    <vehicle id="16" depart="16.00" departPos="0.06" arrivalPos="52.53">
        <route edges="-101354740#5 -101354740#4 -101354740#3 -101354740#2 -101354740#1 135982507#1 135982526#0 135982526#1 135982526#2 135982514 135982510#0 135982510#1 135982486#0 27235474 135982515#0 139834065 33747765#1 33747844 -150052414#0 -150052412 -150052413#1 -150052413#0 -23296246"/>
    </vehicle>
    <vehicle id="17" depart="17.00" departPos="0.78" arrivalPos="1.43">
        <route edges="35016111#0 35016111#2 35016111#3 77955974 231111018#0 231111018#1 231111018#2 43205393#3 43205393#4 23452985#0 23452985#2 23621960#0 23621960#1 31785433#0 23815777 23815790#0 23815790#2 23753384#0 56870105 149546362 149546368#1"/>
    </vehicle>
    <vehicle id="18" depart="18.00" departPos="86.97" arrivalPos="59.35">
        <route edges="29031047 32242282#0 32242282#1 32242282#2 152026706 23218805 23189293#8 23189293#10 32210009#1 238688553#1 298745600#1 23271629#0 23271629#1 23271629#2 260898977#0 260898977#1 260898977#2 260898977#3 260898977#4 260898977#5 31826174"/>
    </vehicle>
    <vehicle id="20" depart="20.00" departPos="13.86" arrivalPos="76.70">
        <route edges="34547386#0 34547480 205519267#1 148678210#2 34547555#0 34547555#2 150018082#0 293300505#0 293300505#2 293300505#4 150018085#0 -43469287#3 -43469287#2 -43469287#1 -43469287#0 -80655879#9 -80655879#8 -80655879#6 -80655879#5 -80655879#3 -80655879#2 -80655879#0 -23253102 -32942500#1 -32942500#0 -205409334#3 -205409334#1 -205409334#0 -32479333#1 -32942505#7 -32942505#2 -82544186#2"/>
    </vehicle>
    <vehicle id="21" depart="21.00" departPos="11.84" arrivalPos="28.75">
        <route edges="34547480 205519267#1 148678210#2 34547555#0 34547555#2 150018082#0 293300505#0 293300505#2 293300505#4 293300503 205519269#0 -23185864#7 -23185864#4 -23185864#3 -260481406#13 -260481406#11 -260481406#9 -260481406#8 -260481406#7 -260481406#6 -260481406#4 -260481406#3 -260481406#2 -260481406#1 93783754#0 93783754#1 23288823#0 23288823#1 23288823#2 23213150#0 23213150#1 236470812 83078456#0 259721583#0 259721586"/>
    </vehicle>
    <vehicle id="22" depart="22.00" departPos="0.71" arrivalPos="50.13">
        <route edges="-35710326#1 -35710326#0 35710328 35898872#1 -30618662#3 -30618662#1 230601119 23290208#0 23290245 23290232#0 23290232#1 23290208#3 35204667#1 23290264#0 210196701#1 -23290171 163787530#22 163787530#23 83202928 23288945#0 23288945#1 23288945#2 23288945#4 23288945#5 151772108#0 34524636#0 34524636#1 23288960#0 23288960#2 23288960#3 23288960#4 23288960#6 23288960#7 151824722#0 151824722#2 151824722#3 151772103#0 151772103#1 151737996 151737991#0 151737991#2 151737991#3 151737994#0 151737994#1 151737993#0 23296535#0 23296535#2 23296535#3 23296535#5 23296535#7 23296586#0"/>
    </vehicle>
    <vehicle id="24" depart="24.00" departPos="35.53" arrivalPos="52.38">
        <route edges="-289800193#1 -289800193#0 23275345#2 23275345#3 23275345#4 23275345#5 23213604#0 35016269#0 35016192#2 35016192#3 35016111#0 35016111#2 35016111#3 --176209 -176180#0 -176180#1 260481406#0 260481406#2 260481406#3 260481406#4 260481406#5 260481406#7 260481406#8 260481406#9 260481406#10 260481406#12 23185864#0 23185864#4 23185864#5 205519269#1 150018078 293300505#0 150018081#0 23296623#0 -150606#0 -150606#2 -150606#3 131881833 132006073#0 132006073#2 151737993#0 23296535#0 23296535#2 259403620"/>
    </vehicle>
    <vehicle id="25" depart="25.00" departPos="0.75" arrivalPos="18.97">
        <route edges="30893699#1 132262802#1 -34036609#2 -34036609#1 -34036609#0 -23271808 34036550 34036579 -23271780#4 -23271780#2 -23271780#0 132262779 183171899 132262793 -33489760#1 23271710 23271717#0 95408277#0 95408277#1 95408277#3 95408277#4 95408277#5 95408277#6 23185863#0 23185863#1 82549445 23253102 23275450#0 23275450#2 23275450#3 23275450#4 23275450#5 80655891#0 80655891#1 80655891#2 39216791#0 39216791#1 39216791#2 39216791#3 151737991#2 151737991#3 151737994#0 151737994#1 151737993#0 23296535#0 23296535#2 23296535#3 23296535#5 23296535#7 -148678215#5 -148678215#3 -148678215#2 -148678215#0 23296587#0"/>
    </vehicle>
    <vehicle id="29" depart="29.00" departPos="54.40" arrivalPos="2.20">
        <route edges="104297095 163787530#13 163787530#14 163787530#15 163787530#16 163787530#17 163787530#18 163787530#19 163787530#20 163787530#21 163787530#22 163787530#23 83202928 23271744 33757835#0 23271755#0 23271755#2 43469298#2 43469298#4 43469298#5 -32942500#1 -32942500#0 -205409334#3 -205409334#1"/>
    </vehicle>
    <vehicle id="30" depart="30.00" departPos="39.68" arrivalPos="10.34">
        <route edges="32210191 23218811#0 23218811#1 250220668 32942493#1 32942493#2 -260481406#13 -260481406#11 -260481406#9 -260481406#8 -260481406#7 -236093055#1 34394536 34395064#2 -260481406#4 -260481406#3 -260481406#2 -260481406#1 93783754#0 93783754#1 -176209 77955974 231111018#0 231111018#1 231111018#2 43205393#3 43205393#4 23452985#0 23452985#2 23621960#0 23621960#1 31785433#0 199915505#0 199915505#1 40874980#4 40874980#0 40874980#1 256575297#0 -121294669 121294670"/>
    </vehicle>
    <vehicle id="34" depart="34.00" departPos="0.14" arrivalPos="2.13">
        <route edges="131881833 132006073#0 132006073#2 151737993#0 151737993#1 132003833#0 151732541#0 151732541#1 151737998#0 151737998#1 23295215#0 23295215#1 281681813#4 281681813#5 281681813#6 -23295182#1 -23295182#0 293300507#1 293300507#2 23189378 43469298#0 43469298#1 43469298#2 43469298#4 43469298#5 -32942500#1 -32942500#0 -205409334#3 -205409334#1 -205409334#0 -32479333#1 -32942505#7 -32942505#2 -82544186#2 8116114 32941914#0 32941914#1 32941914#2 32941914#5 32941914#6 95408276#0 95408276#1 95408276#2 95408276#3 95408276#4 95408276#5 95408276#6 95408276#7 95408276#8 32812916#1 -34349348"/>
    </vehicle>
    <vehicle id="37" depart="37.00" departPos="12.40" arrivalPos="23.27">
        <route edges="-239339467#1 23289049#0 23185864#4 23185864#5 205519269#1 150018078 293300505#0 293300505#2 293300505#4 150018085#0 -43469287#3 -43469287#2 -43469287#1 -43469287#0 -80655879#9 33832065#0 23276040#1 33832066 33832067#5 33832067#6 33832067#7 34559273#0 32479262 34559292#0 34559292#1 34559292#2 23189390#0 23189390#1 23189390#2 8116113#2 -34561269"/>
    </vehicle>
    <vehicle id="38" depart="38.00" departPos="33.73" arrivalPos="12.91">
        <route edges="34550195 33831421#1 33831421#2 34550188 151766107 -23295321#3 -23295321#2 -23295321#1 -23295321#0 34549615"/>
    </vehicle>
    <vehicle id="39" depart="39.00" departPos="0.08" arrivalPos="15.52">
        <route edges="-82544185 238688596#9 238688596#10 82544186#0 32942505#0 32942505#3 32479333#0 205409334#0 205409334#1 205409334#2 32942500#0 32942500#1 23253102"/>
    </vehicle>
    <vehicle id="40" depart="40.00" departPos="11.90" arrivalPos="11.72">
        <route edges="-35710326#1 -35710326#0 35710328 35898872#1 -30618662#3 -30618662#1 230601119 23290208#0 23290245 23290232#0 23290232#1 23290208#3 35204667#1 23290264#0 23290264#1 23288944#2 33757629#0 23837909#5 23837909#6 23271744 33757835#0 33757835#1 82549439 82549438 23185863#0 23185863#1 82549445 -32942500#1 -32942500#0 -205409334#3 -205409334#1 -205409334#0 -32479333#1 -8116113#9 -8116113#7 -8116113#3 23189293#0 23189293#1 23189293#2 23189293#3 23189293#4 32241874 32241701#1 32241701#2 31127075#0 31127075#1 -32210164"/>
    </vehicle>
    <vehicle id="41" depart="41.00" departPos="62.12" arrivalPos="30.43">
        <route edges="-35016206#1 35016111#3 --176209 -176180#0 -176180#1 260481406#0 260481406#2 260481406#3 260481406#4 260481406#5 260481406#7 260481406#8 260481406#9 260481406#10 260481406#12 23185864#0 23185864#4 23185864#5 205519269#1 150018078 293300505#0 150018081#0 23296623#0 -150606#0 -150606#2 -150606#3 131881833 132006073#0 132006073#2 151737993#0 151737993#1 23288757#0 23288757#1 23288757#2 23288757#4 23288757#5 151824728#0 151824728#2 151824728#4 34524852 151772099 23288957#2 23288957#4 35855793#0 35855793#1 35855794#0 35855794#1 163787530#19 35879849#0 35879849#1 141802866"/>
    </vehicle>
    <vehicle id="44" depart="44.00" departPos="12.70" arrivalPos="4.65">
        <route edges="32242606#0 32942505#3 -8116113#9 -8116113#7 -8116113#3 23189293#0 23189293#1"/>
    </vehicle>
    <vehicle id="45" depart="45.00" departPos="0.00" arrivalPos="89.06">
        <route edges="30853486#0 30853486#1 23271767#3 -23271780#2 -23271780#0 132262779 183171899 132262793 -33489760#1 23271710 23271717#0 95408277#0 95408277#1 95408277#3 95408277#4 95408277#5 33760081 23185863#1 82549445 23253102 80655879#0 80655879#1 -231264058 23275450#2 23275450#3 23275450#4 23275450#5 80655891#0 80655891#1 80655891#2 39216791#0 39216791#1 39216791#2 39216791#3 151737991#2 151737991#3 151737994#0 151737994#1 151737993#0 151737993#1 23288757#0 23288757#1 23288757#2 23288757#4 23288757#5 151824728#0 151824728#2 151824728#4 34524852 23289608#0 23289608#1 23289608#2 23289608#3 23289608#4 23289608#5 23289608#6 23289608#7 -27032657#2 -27032657#1"/>
    </vehicle>
    <vehicle id="46" depart="46.00" departPos="24.14" arrivalPos="114.46">
        <route edges="23275450#0 231264058 -80655879#2 -80655879#0 -23253102 -183743755 -23185863#1 -23185863#0 23271728#0 23271732#0 23271732#1 23271732#2 -33523355#1 -33523355#0 23276766 23276195#0 -231108881 292179033#0 292179033#2 292179033#3"/>
    </vehicle>
    <vehicle id="47" depart="47.00" departPos="31.20" arrivalPos="67.27">
        <route edges="-267416312#1 -267416311#1 148678215#3 148678215#4 -23296535#7 -23296535#6 -23296535#4 -23296535#2 -23296535#1 151737993#1 23288757#0 23288757#1 23288757#2 23288757#4 23288757#5 151824728#0 151824728#2 151824728#4 34524852 151772099 23288957#2 23288957#4 23288957#5 23288944#0 231109180#0 231109180#1 231109180#2 96199160#0 96199160#1 230600622 30618662#0 230601119 23290208#0 23290208#1 23290208#2"/>
    </vehicle>
    <vehicle id="49" depart="49.00" departPos="58.11" arrivalPos="40.35">
        <route edges="260210045 260210046 149955205#2 61738705 61738704#0 259721591#2 -260210046 32479531#0 32479531#1 32479531#2 150052414#0 150052414#1 150052414#2 135982498#0 23288888#3 34351517 236470544#0 23276261 31826183"/>
    </vehicle>
    <vehicle id="51" depart="51.00" departPos="214.08" arrivalPos="78.29">
        <route edges="-31253007 235823929#1 235823929#2 235823929#3 31322298#5 31322298#6 23295984#0 292179033#7 23288923#1 23288923#2 132262795#0 132262795#1 135982518 135982506 135982510#0 135982510#1 135982486#0 135982529 135982532 135982478 23288888#1 23288888#2 23288888#3 23288888#5 23288868 83078456#0 83078456#1 301242139 23210836#0 23210836#2 23210836#3 77955974 231111018#0 231111018#1 231111018#2 43205393#3 43205393#4 23452985#0 23452985#2 -53290464#1 53238682#0 -53238683"/>
    </vehicle>
    <vehicle id="52" depart="52.00" departPos="13.03" arrivalPos="25.74">
        <route edges="23189376#1 116440051 23189387#2 23189364#1 23189364#2 -43469287#2 -43469287#1 -43469287#0 -80655879#9 -80655879#8 -80655879#6 -80655879#5 -80655879#3 -80655879#2 -80655879#0 -23253102 -32942500#1 -32942500#0 -205409334#3 -205409334#1 -205409334#0 -32479333#1 -32942505#7 -32942505#2 -82544186#2 8116114 32941914#0 32941914#1 23218488#0 -32242604"/>
    </vehicle>
    <vehicle id="54" depart="54.00" departPos="12.09" arrivalPos="35.37">
        <route edges="-281697324#1 23189376#0 23189376#1 23189376#2 23189364#2 43469287#3 150018086#0 205519269#0 -23185864#7 -23185864#4 -23185864#3 -260481406#13 -260481406#11 -260481406#9 -260481406#8 -260481406#7 -236093055#1 -236093055#0 -236093054 -34394634#2 -34394634#1 -34394634#0 23218857 23184327#4 23184327#5 34395259#0 -23332076#1 -39673908#4 -39673908#3 -39673908#2 24266527#0 41277863 171933238#0 171933238#1 56061733#2 56061733#3"/>
    </vehicle>
    <vehicle id="55" depart="55.00" departPos="4.25" arrivalPos="28.91">
        <route edges="238688596#3 23271667 32210009#1 32242391 23271969#0 23271969#1 23271955#1 23271961#1 23271961#2 171986074#0 32942447 172198432 23210836#0 23210836#2 23210836#3 77955974 231111018#0 231111018#1 236466754#0"/>
    </vehicle>
    <vehicle id="56" depart="56.00" departPos="75.00" arrivalPos="154.79">
        <route edges="5010592#0 5010592#1 -32242298 260481406#2 260481406#3 260481406#4 260481406#5 260481406#7 260481406#8 260481406#9 260481406#10 260481406#12 23185864#0 23185864#4 23185864#5 205519269#1 150018078 293300505#0 150018081#0 23296623#0 -150606#0 -150606#2 -150606#3 131881833 34524142#0 34524142#2 23296535#5 23296535#7 23296535#8"/>
    </vehicle>
    <vehicle id="57" depart="57.00" departPos="31.95" arrivalPos="167.84">
        <route edges="26955912#0 23296298#0 23296256#3 132106761#0 23587376#0 49403726#4 150052413#0 150052413#1 150052412 150052414#0 150052414#1 150052414#2 135982498#0 135982498#1 135982498#2 263613470 135982519 135982505#0 135982505#1 135982505#2 135982505#3 135982505#4 135982505#5 135982505#6 135982505#7 135982505#8 23271701#7 95408281#0 95408281#1 132262793 -33489760#1 23271710 23271717#0 33523238#0 23276172 -23271762#1 -23271762#0 -33523355#4 -33523355#3 -33523355#2 -33523355#1 -33523355#0 23276766 248200212#0 248200212#2 33523466#0 23837909#0 23837909#4 23837909#5 23837909#6 23288945#0 23288945#1 23288945#2 23288945#4 23288945#5 151772110#0 34524834 23289608#0 23289608#1 23289608#2 23289608#3 23289608#4 23289608#5 23289608#6 23289951#0 23289951#1 23289951#2 23289951#3 132648782#1 24678342#2"/>
    </vehicle>
    <vehicle id="58" depart="58.00" departPos="53.54" arrivalPos="4.52">
        <route edges="-170939103 139762405#1 23296227#0 23296227#1 150076246#0 33747684 33747765#0 33747765#1 33747765#2 33747765#3 23288888#1 23288888#2 23288888#3 23288888#5 23288868 83078456#0 83078456#1 301242139 23210836#0 23210836#2 23210836#3 --176209 -176180#0 -176180#1 260481406#0 260481406#2 260481406#3 260481406#4 260481406#5 260481406#7 260481406#8 260481406#9 260481406#10 260481406#12 32497485#0 34629816#0 132262800 23184329#0 -41277870#0 28771409 31976049"/>
    </vehicle>
    <vehicle id="59" depart="59.00" departPos="20.42" arrivalPos="24.15">
        <route edges="37014427 34561125#1 34561269 8116113#4 8116113#8 32479333#0 205409334#0 205409334#1 205409334#2 32942500#0 32942500#1 -183743755 -23185863#1 -23185863#0 23271728#0 23271732#0 23271732#1 23271732#2 -33523355#1 -33523355#0 23276766 23276195#0 23288931#4 23288931#7 33523402#0 83202926 156231178#0 156231178#1 156231178#2 156231178#3 156231178#4 96199140#0 96199140#1 96199140#2 96199140#3 40062856 -96199132 -35898872#1 35710332 35710329#0"/>
    </vehicle>
    <vehicle id="60" depart="60.00" departPos="14.78" arrivalPos="96.48">
        <route edges="33758430 30853431#1 30044974#1 30959664#0 30959664#1 30959664#2 -23296863 23276104 32942500#0 32942500#1 -183743755 -23185863#1 -23185863#0 23271728#0 23271728#1 23276766 248200212#0 248200212#2 33523466#0 23837909#0 23837909#4 23837909#5 23837909#6 23271744 33757835#0 33757835#1 23271759#0 23276711 33758038"/>
    </vehicle>
    <vehicle id="61" depart="61.00" departPos="13.31" arrivalPos="11.21">
        <route edges="-34521401 23276707#1 34521300#0 34521300#1 82549438 23185863#0 23185863#1 82549445 -32942500#1 -32942500#0 -205409334#3 -205409334#1 -205409334#0 -32479333#1 -32942505#7 -32942505#2 -82544186#2 8116114 32941914#0 23189473#0 23296407 11480374#2 11480374#3 11480374#4 11480374#6 11480374#7 11480374#8 11480374#9 11480374#10 11480374#11 11480374#12 11480374#13 260898977#0 260898977#1 260898977#2 260898977#3 260898977#4 260898977#5 260898977#6 260898977#7 32942367 296932687#1 23288872#0 23288872#1 -135982498#1 -135982498#0 -150052414#2 -150052414#1 -150052414#0 -150052412 260210045 260210046 149955205#2 149955205#3 32064573#0 23275370#3 23275370#5 55302014#0 55302014#2 -31743212#2 -31743212#1 23275345#0 23275345#2 23275345#3 23275345#4 23275345#5 23275345#6 23275345#7 23275345#8 23275345#9 288796821#0 288796822#1"/>
    </vehicle>
    <vehicle id="62" depart="62.00" departPos="13.15" arrivalPos="73.14">
        <route edges="56061728 25155150#2 23602805#0 23602805#1 56061733#0 56061733#1 56061733#2 56061733#3 41277856#0 41277856#3 -32003370#1 -23452985#1 43205393#1 23453044#0 33831606 23453044#4 33831608 97076091 34395278#1 93783755#0 93783755#1 23288823#0 231111092 23184094 23184098 23271961#0 23271961#1 -32058534"/>
    </vehicle>
    <vehicle id="63" depart="63.00" departPos="23.29" arrivalPos="11.60">
        <route edges="-87572864#2 -87572864#1 207243458#1 37711921#1 35742705#1 231109108#0 23837911#1 -292179253#1 23288931#7 23837909#0 23837909#4 23837909#5 23837909#6 23271744 33757835#0 33757835#1 82549439 82549438 23185863#0 23185863#1 23276707#0 23276707#1 34521300#0 34521697"/>
    </vehicle>
    <vehicle id="64" depart="64.00" departPos="50.88" arrivalPos="12.87">
        <route edges="-216686365 216686366 26680038#3 216686402#0 -56061731#3 42889519#0 -56061732 25155146#2 40872975#3 23815790#0 23815790#2 56870101 231370442 56061733#1 56061733#2 56061733#3 -24266527#3 -24266527#1 -24266527#0 39673908#1 39673908#3 39673908#4 39673908#5 34395250 34395273#2 34395064#0 34395064#1 34395064#2 260481406#5 260481406#7 260481406#8 23189252#0 23189252#1 23189252#2 23189252#3 23189266#0 23189266#1 23189266#2 23189293#6 23189293#8 23189293#10"/>
    </vehicle>
    <vehicle id="65" depart="65.00" departPos="22.54" arrivalPos="12.67">
        <route edges="-231264058 23275450#2 23275450#3 23275450#4 151766115#0 34549307 281699203 34549228 34549297#0 34549297#1 43469287#1 43469287#2 43469287#3 150018086#0 205519269#0 -23185864#7 -23185864#4 -23185864#3 -260481406#13 -260481406#11 -260481406#9 -260481406#8 -260481406#7 -260481406#6 -260481406#4 -260481406#3 23184239 32242282#0 32242282#1 32242282#2 -32210317"/>
    </vehicle>
    <vehicle id="66" depart="66.00" departPos="8.45" arrivalPos="51.79">
        <route edges="30887717#3 95408276#3 95408276#4 95408276#5 23271826 34347629#0 34347629#1 34347629#2 236468429#0 -34036609#2 -34036609#1 -34036609#0 -23271808 34036550 34036579 -23271780#4 -23271780#2 -23271780#0 132262779 183171899 132262793 -33489760#1 23271710 23271717#0 95408277#0 33758430 30853431#1 30044974#1 30959664#0 30959664#1 30959664#2 -23296863 23276104 23276047 33832067#0 33832067#2 33832067#3 33832067#4 33832067#5 33832067#6 33832067#7 34559273#0 33831428#0 33831428#4"/>
    </vehicle>
    <vehicle id="67" depart="67.00" departPos="3.70" arrivalPos="24.45">
        <route edges="262093410#0 262093410#1 262093410#2 163787534#1 35898143 163787530#14 163787530#15 163787530#16 163787530#17 163787530#18 163787530#19 163787530#20 163787530#21 163787530#22 163787530#23 83202928 23271744 33757835#0 33757835#1 82549439 82549438 23185863#0 23185863#1 82549445 -32942500#1 -32942500#0 -205409334#3 -205409334#1 -205409334#0 -32479333#1 -32942505#7 -32942505#2 -82544186#2 8116114 11480374#0 11480374#2 11480374#3 11480374#4 11480374#6 11480374#7 11480374#8 11480374#9 11480374#10 11480374#11 11480374#12 11480374#13 260898977#0 260898977#1 260898977#2 260898977#3 260898977#4 23271947#0 32942447 172198432 23210836#0 23210836#2 23210836#3 77955974 231111018#0 231111018#1 231111018#2 43205393#3 43205393#4 23452985#0 23452985#2 23621960#0 23621960#1 41277857#0 41277857#5 23443899 24589437#1 32566100#0 23291164#0 288784223"/>
    </vehicle>
    <vehicle id="68" depart="68.00" departPos="169.47" arrivalPos="5.54">
        <route edges="215301872#0 56061733#1 56061733#2 56061733#3 41277856#0 41277856#3 -32003370#1 -23452985#1 43205393#1 23453044#0 23453044#2 23453044#4 33831608 23288787#3 34395250 34395273#2 34395064#0 34395064#1 -155296008 236093055#1 260481406#7 260481406#8 260481406#9 260481406#10 260481406#12 23185864#0 23185864#4 32479265#0 23189364#0 23189364#1 23189364#2 -43469287#2 -43469287#1 -43469287#0 -80655879#9 -80655879#8 -80655879#6 -80655879#5 -80655879#3 -80655879#2 -80655879#0 -23253102 -32942500#1 -32942500#0 -205409334#3 -205409334#1 -205409334#0 -32479333#1 -32942505#7 -32242606#1"/>
    </vehicle>
    <vehicle id="69" depart="69.00" departPos="12.09" arrivalPos="5.30">
        <route edges="-119095430 -35829123#2 -35829123#0 163787530#10 163787530#11 163787530#12 163787530#13 163787530#14 163787530#15 163787530#16 163787530#17 163787530#18 163787530#19 163787530#20 163787530#21 163787530#22 163787530#23 83202928 23271744 33757835#0 33757835#1 82549439 82549438 23185863#0 23185863#1 82549445 23253102 80655879#0 80655879#1 80655879#3 80655879#4 80655879#6 80655879#7 80655879#9 43469287#0 43469287#1 34549301#0 34549301#1"/>
    </vehicle>
    <vehicle id="71" depart="71.00" departPos="0.52" arrivalPos="103.44">
        <route edges="-34549675#1 281681811#1 239881751#0 239881751#1 151824716 151824728#0 151824728#2 151824728#4 34524852 151772099 23288957#2 23288957#4 23288957#5 23288944#0 231109180#0 231109180#1 231109180#2 96199160#0 163787534#0 262093410#3 30618662#0 30618662#1 -35917413"/>
    </vehicle>
    <vehicle id="73" depart="73.00" departPos="135.34" arrivalPos="11.67">
        <route edges="171597938 23410928#0 299421423#1 268468839#2 23452971#0 23452971#1 -23453007#1 -23452985#1 43205393#1 23453044#0 23453044#2 23453044#4 33831608 23288787#3 23288767#0 23288767#2 23288767#3 23288767#4 23332081 231110041#0 231110041#1 231110041#2 34394414#0 236093296#0 236093296#1 260481406#9 260481406#10 260481406#12 23185864#0 23185864#4 32479265#0 23189364#0 23189364#1 23189364#2 -43469287#2 -43469287#1 -43469287#0 -80655879#9 -80655879#8 -33832069"/>
    </vehicle>
    <vehicle id="77" depart="77.00" departPos="13.71" arrivalPos="33.78">
        <route edges="-288796822#1 -288796821#0 23275345#10 23275345#11 149955204 23213150#0 23213150#1 296932687#1 23288872#0 23288872#1 23288872#3 23288872#4 23288872#5 135982516#1 135982516#4 135982489 135982511#1 135982511#2 135982511#3 135982511#4 135982511#5 135982511#6 135982530 43188683 -135982534#1 -135982534#0 -135982507#1 101354740#0 101354740#2 101354740#3 101354740#4 -210621086"/>
    </vehicle>
    <vehicle id="78" depart="78.00" departPos="163.47" arrivalPos="61.01">
        <route edges="23296590#1 34549810 23288757#4 23288757#5 151824728#0 151824728#2 151824728#4 34524852 151772099 23288957#2 23288957#4 23288957#5 23288944#0 23288944#1 23288944#2 23288944#3 23288944#4 23837911#0 23837911#1 -292179253#1 23288931#7 23837909#0 23837909#4 231109181#0 33523555"/>
    </vehicle>
    <vehicle id="80" depart="80.00" departPos="7.19" arrivalPos="63.99">
        <route edges="25155150#1 25155150#2 23602805#0 56870085 -23753384#1 56061730#0 41277856#3 23621960#0 23621960#1 41277857#0 41277857#5 23443899 24589437#1 24589437#2 24589437#3 32566008#1 32566069 23275345#0 23275345#2 23275345#3 23275345#4 23275345#5 23275345#6 23275345#7 23275345#8 23275345#9 23275345#10 23275345#11 149955204 23183655#0 23183655#1 298745601#1 298745601#3 298745601#4 298745601#5 298745600#0 298745600#1 298745600#2 298745600#3 238688597 238688596#1 238688596#2 238688596#3 238688596#4 238688596#5 238688596#6 238688596#9 238688596#10 82544186#0 32942505#0 32942505#3 32479333#0 11480268#0 11480268#1 -233088656#0 33759873 33759616#0 33759616#2 30959664#1 30959664#2 -23296863"/>
    </vehicle>
    <vehicle id="81" depart="81.00" departPos="38.13" arrivalPos="123.29">
        <route edges="23815790#2 56061730#0 56061729#0 56061729#2 171933237#0 171933237#1 23621943#0 23621943#1 23621943#3"/>
    </vehicle>
    <vehicle id="85" depart="85.00" departPos="25.72" arrivalPos="45.96">
        <route edges="-267416312#1 -267416311#1 148678215#3 148678215#4 -23296535#7 -23296535#6 -34524142#4 -34524142#1 -131881833 --150606#4 --150606#2 --150606#1 -23296623#1 150018080#0 293300505#4 293300503 205519269#0 -23185864#7 -23185864#4 -23185864#3 -260481406#13 -260481406#11 -260481406#9 23189252#0 23189252#1 23189252#2 23189252#3 23189266#0 23189266#1 23189266#2 23189293#6 23189293#8 23189293#10 32210009#1 238688553#1 298745600#1 23271629#0 23271629#1 23271629#2 260898977#0 260898977#1 260898977#2 260898977#3 260898977#4 260898977#5 260898977#6 34349826#0 34349826#1 34349826#2 34349826#4 135982505#0 135982505#1 135982505#2"/>
    </vehicle>