<?xml version="1.0" encoding="UTF-8"?>

<!-- generated on 2024-11-22 15:26:00.358569 by randomTrips.py v1_19_0+0000-baa66a0f364
<configuration>
    <net-file value=".\full.net.xml"/>
    <route-file value="sampleRoutes.rou.xml"/>
    <random-factor value="10.0"/>
    <fringe-factor value="10"/>
    <random value="True"/>
    <min-distance value="100.0"/>
</configuration>
-->

<!-- generated on 2024-11-22 15:25:57 by Eclipse SUMO duarouter Version 1.19.0
<configuration xmlns:xsi="http://www.w3.org/2001/XMLSchema-instance" xsi:noNamespaceSchemaLocation="http://sumo.dlr.de/xsd/duarouterConfiguration.xsd">

    <input>
        <net-file value=".\full.net.xml"/>
        <route-files value="trips.trips.xml"/>
    </input>

    <output>
        <output-file value="sampleRoutes.rou.xml"/>
        <alternatives-output value="NUL"/>
    </output>

    <time>
        <begin value="0"/>
        <end value="3600"/>
    </time>

    <report>
        <no-warnings value="true"/>
        <ignore-errors value="true"/>
        <no-step-log value="true"/>
    </report>

</configuration>
-->

<routes xmlns:xsi="http://www.w3.org/2001/XMLSchema-instance" xsi:noNamespaceSchemaLocation="http://sumo.dlr.de/xsd/routes_file.xsd">
    <vehicle id="0" depart="0.00">
        <route edges="95408276#2 95408276#3 95408276#4 95408276#5 95408276#7 95408276#8 455333831 845479150#1 959992431#1 455333827#0 455333827#1 455333827#3 135982508 135982501 43188683#0 43188683#1 135982518#0 135982518#1 135982506 135982510#0 135982510#1 135982486#0 135982486#1 135982486#2 1131234799 344500891 23288888#1 23288888#2 1131830805#0 675587135#0 675587135#2 675587135#3 675587136#0 370093519#2 969701318#0 969701318#1 23288868 83078456#0 83078456#1 83078456#2 83078456#5 83078456#9 23210836#1 23210836#2 23210836#5 23210836#6 77955974#0 23288787#0 23288787#1 23288787#2 23288787#3 661413466#1 661413466#2 661413466#3 661413466#4 -23332076 1152037589 -455561985#4 -455561985#2 -455561985#1 -455561985#0 -1116542953#0 -39673908#5 -39673908#3 -39673908#2 -39673908#1 460508604 587236601#2 171173503 154144142#0 154144142#1 154144142#2 154144142#3 405111228 -405111228 -154144142#3 -154144142#2 -154144142#1 -154144142#0"/>
    </vehicle>
    <vehicle id="1" depart="1.00">
        <route edges="-210621088 -101354740#2 -101354740#1 -101354740#0 347650517#4 347650517#6 135982534#0 135982534#1 135982518#0 135982518#1 135982506 135982510#0 135982510#1 135982486#0 135982486#1 135982486#2 1131234799 344500891 23288888#1 23288888#2 1131830805#0 675587135#0 675587135#2 675587135#3 675587136#0 370093519#2 969701318#0 969701318#1 23288868 83078456#0 83078456#1 83078456#2 83078456#5 83078456#9 23210836#1 23210836#2 23210836#5 23210836#6 77955974#0 23288787#0 23288787#1 23288787#2 23288787#3 661413466#1 661413466#2 661413466#3 661413466#4 34395250 1298491754#1 34395064#0 34395064#1 34395064#2 34395064#3 34395064#4 450836889#1 1070362289#0 450836875#1 450836875#2 450836861#0 450836878#1 325886647#1 943553380#0 23185864#0 23185864#1 23185864#2 448811304 23189373#1 23189373#2 34547288#0 34547288#1"/>
    </vehicle>
    <vehicle id="2" depart="2.00">
        <route edges="-34036037#0 135982476#6 135982476#7 945119921 -1146937084 292179033#9 23288923#0 23288923#1 23288923#2 23288923#3 23288923#5 23288923#6 132262795#0 132262795#1 135982518#0 135982518#1 135982506 135982510#0 135982510#1 135982486#0 135982486#1 135982486#2 1131234799 344500891 23288888#1 23288888#2 1131830805#0 675587135#0 675587135#2 675587135#3 675587136#0 -1131830810#0 -135982498#1 -135982498#0 -150052414#1 -150052413#9 -150052413#8 -150052413#6 -150052413#5 -150052413#2 -150052413#0 150052400#0 150052400#1 150052400#3 -150052400#3 -150052400#2 -150052400#0"/>
    </vehicle>
    <vehicle id="3" depart="3.00">
        <route edges="-23276766#0 23276766#0 23276766#1 23276766#2 23276766#3 945850922 33523466 945850934#1 23837909#0 23837909#1 23837909#2 23837909#3 23837909#4 23837909#6 23837909#8 23288945#0 23288945#1 23288945#2 23288945#4 648493813#0 648493813#1 648493813#2 648493813#3 151772110#0 151772110#1 1303980970#0 1303980966 1303980969 1304381643#0 1304381643#1 1304381643#2 1304381642 1302766172#0 1302766172#1 1302766172#3 1288780345#0 1288780345#1 1288780345#2 1288781680#1 1288781680#2 1288781680#3 1288781680#4 1288781680#5 1288938845#0 1288938844#0 1288938844#2 1315944433 1190711536#1 1190711536#2 1190711536#3 96199150#0 96199150#2 96199150#3 1190711540 737507747#0 24865694#1 24865694#3 24865694#5 78498527 78498524#0 78498524#1 210129691"/>
    </vehicle>
    <vehicle id="4" depart="4.00">
        <route edges="391998407#3 391998407#4 391998407#5 23289951#3 23289951#4 23289951#5 329319925#1 329319926#1 530507951#1 530507951#2 530507951#3 119742500#1 119742500#2 808896833#0 808896833#1 808896833#4 808896833#5 808896833#6 323422052 323825894#0 323825894#1 323825894#2 325457399#2 325457399#3 325457399#4 325457399#5 23288944#0 23288944#1 23288944#3 23288944#4 23288944#6 23288944#7 23288944#8 23288944#10 23837911#0 23837911#1 23837911#2 23837911#3 292179033#0 292179033#1 292179033#3 292179033#4 292179033#5 292179033#6 292179033#7 292179033#8 -23295984 -455829556#1 -453785959 -31322298#13 -31322298#12 -31322298#11 -31322298#10 -31322298#9 -31322298#8 -31322298#7 -31322298#6 -31322298#5 -30814238#1 -30814238#0"/>
    </vehicle>
    <vehicle id="5" depart="5.00">
        <route edges="-160491343#1 -160491343#0 -1115514326#1 -1115514326#0 82549436#0 82549436#1 82549436#2 479678379#1 82549437#1 82549437#3 232512848#0 35487552#1 35901457#1 35901457#2 35901457#3 35901456#0 35898872#3 23290288#1 23290288#2 163787530#8 163787530#10 163787530#11 23290069#2 23290069#4 23290069#5 23290069#6 808896833#4 808896833#5 808896833#6 323422052 323825894#0 151766116#0 151766116#2 325457398#0 325457398#1 648493813#2 648493813#3 151772108#0 151772108#1 34524636#0 23288960#3 23288960#5 23288960#6 151824722#1 151824722#2 151824722#4 151772103#0 479678291#0 479678291#1 23288761#0 23288761#2 23288761#4 131881840#2 151824729#0 1215972436#0 151824736#2 43469290#0 43469290#1 43469291#0 43469291#1 293298723#0 205519279#0 323222450#1 455336990#0 455336990#1 132262800 23184329#0 23184329#2 1151980389 -41277870#1 808909664#1 808909664#3 23277314#1 23277314#3 23277314#4 23277314#5 23277314#6 23277314#7 452137903#0 452137903#1 23189124#1 23189124#4 452137912#1 37931740 808916786#1"/>
    </vehicle>
    <vehicle id="6" depart="6.00">
        <route edges="34558714#1 943553384 305892959#1 305892959#2 -325886647#1 450836902#1 -450836861#0 -450836875#2 -450836875#1 -1070362289#0 450836906#0 -450836867#0 -450836864#2 -450836864#1 -450836864#0 -450836857#1 -450836857#0 450836898#0 -450836871#0 450836881#0 450836881#1 871214047 450836799 93783754#0 93783754#1 93783754#2 23288817 77955974#0 231111018#0 231111018#1 231111018#2 231111018#3 231111018#5 231111018#6 1226330391#0 1226330391#1 1226330391#3 479678072 1228294707 479678071 23452985#0 23452985#1 1227322420 912941751 454704826 1228294708 32003370#1 23621960#0 23621960#1 23621960#2 23621960#3 23621960#4 23621960#5 23621960#6 23621960#7 31785433#0 31785433#1 904711707#0 904711707#1 904711707#3 199915505#0 199915505#1 199915505#2 199915505#3 618977881#0 618977881#1 217109091#0 217109091#1 217109091#2 217109091#3 867694740#0 867694740#2 867694740#3 867694740#4 867694740#5 80653044#1 80653044#2 80653044#3 80653044#5 80653044#6 80653044#7 80653044#8 80653044#9 80653044#10 80653044#12 997409154#0 997409154#1 102946820#0 102946820#2 102946820#3 -102946820#3"/>
    </vehicle>
    <vehicle id="7" depart="7.00">
        <route edges="93783755#0 93783755#1 618464280 23288817 77955974#0 23288787#0 23288787#1 23288787#2 23288787#3 661413466#1 661413466#2 661413466#3 661413466#4 648493809#0 648493809#1 648493809#5 648493809#6 672517249#0 672517249#2 23288767#0 23288767#1 23288767#2 23288767#4 23288767#5 23277071#0 23277071#1 1118443339#0 839269637 585918817#1 150018091 585918818 1294567928#0 80655884#0 80655884#1 352056867#0 352056866#0 151824735#0 151824735#1 151824735#2 151824730#1 151824730#3 132006073#1 479678295 455320420 23288757#0 23288757#2 23288757#3 151824728#1 151824728#2 151824728#5 34524852#0 34524852#1 1302766174 1303980969 1304381643#0 1304381643#1 1304381643#2 1304381642 1302766172#0 1302766172#1 1302766172#3 1288780345#0 1288780345#1 1288780345#2 1288781680#1 1288781680#2 1288781680#3 1288781680#4 1288781680#5 1288938845#0 1288938844#0 1288938844#2 1315944433 1190711536#1 1190711536#2 1190711536#3 96199150#0 96199150#2 96199150#3 1190711540 737507747#0 24865694#1 24865694#3 24865694#5 78498527 -391578319#7 -391578319#6 -391578319#5 -391578319#4 -391578319#3 391578319#3 391578319#4 391578319#5"/>
    </vehicle>
    <vehicle id="8" depart="8.00">
        <route edges="-1111790471 -98524811#0 24236308#2 24236308#4 24236308#5 24236308#7 -260532178 -1111790466 24236349#1 49405054#0 49405054#1 163830859#0 699631358#5 699631358#7 1115567473 1115567475 1115567477 681302090 23275323 1174515961#1 1115567483#0 1115567483#1 1113328729 885860487#0 885860487#2 1115567486#0 1115567486#1 253811695#0 253811695#1 253811695#2 885860486#0 1116253906 1116253905 1116253904#0 1116253904#1 1116253895#0 575161854#1 1116253889 1116253888 1122691764 1116253887#0 23296246#0 23296246#3 150052413#0 150052413#1 150052413#5 150052413#6 150052413#8 150052413#9 150052414#1 135982498#0 135982498#1 1131830810#0 370093519#2 969701318#0 969701318#1 23288868 83078456#0 83078456#1 83078456#2 83078456#5 83078456#9 23210836#1 23210836#2 23210836#5 23210836#6 77955974#0 23288787#0 23288787#1 23288787#2 23288787#3 661413466#1 661413466#2 661413466#3 661413466#4 648493809#0 648493809#1 648493809#5 648493809#6 672517249#0 672517249#2 23288767#0 23288767#1 23288767#2 23288767#4 23288767#5 23277071#0 23277071#1 1118443339#0 839269637 585918817#1 150018091 585918818 23220063#0 82544187#0 82544187#1 34547555#1 34547555#2 34547555#3 1118443338#0 1118443338#1 150018082#1 479678290 293300505#0 293300505#1 479678289 150018085#0 448811298 1115601836 448811301#1 -448811293#1 -448811293#0 281697324#1 894393267#1 34559273#0 1226454897 34559292#0 34559292#1 34559292#2 34559292#3 34559292#4"/>
    </vehicle>
    <vehicle id="9" depart="9.00">
        <route edges="151360500#1 24839360#0 24839360#1 24839360#4 24839360#5 24839360#6 24839360#7 37931742#0 37931742#1 37931742#2 37931742#3 236262660 479678327 479678331 236262657 447268540#0 447268540#1 37931741#2 37931741#3 37931741#4 37931741#5 37931741#6 37931741#8 132262789 132262790#1 132262790#3 132262790#5 871932800 1159923498 23277216 322430552#0 322430552#1 322430552#3 322430552#4 816256658#0 816256658#1 41277870#1 -1151980384#1 -23184329#2 -23184329#0 -132262800 23184327#0 23184327#1 23184327#2 23184327#5 648493812#0 648493812#1 648493812#2 454030795#1 454030795#2 34395273 1298491754#0 1298491754#1 386909726#0 386909726#1 500928317#0 500928317#1 500928317#2 34395278#1 34395278#3 34395278#4 93783755#0 93783755#1 618464280 23288823#0 23288823#1 23288823#3 23288823#5 387442533#2 387442533#4 387442533#5 387442533#6 296932687#1 23288872 1131830811 335384210#1 335384210#2 335384210#3 1182670511#1 1182670511#2 675588891#0 675588891#1 1131830807#0 1131830807#1 675588893 135982519#0 135982519#1 135982519#2"/>
    </vehicle>
    <vehicle id="10" depart="10.00">
        <route edges="-826561109#1 -826561109#0 826561109#0 826561109#1 1316641151#1 1316641151#2 1316641151#3 1302766173#0 1302766173#2 151772099 23288957#0 23288957#1 23288957#2 23288957#3 23288957#4 325457399#0 325457399#1 325457399#2 325457399#3 325457399#4 325457399#5 23288944#0 23288944#1 23288944#3 23288944#4 23288944#6 23288944#7 23288944#8 23288944#10 23837911#0 23837911#1 23837911#2 23837911#3 292179033#0 292179033#1 292179033#3 292179033#4 292179033#5 292179033#6 292179033#7 292179033#8 292179033#9 23288923#0 23288923#1 23288923#2 23288923#3 23288923#5 23288923#6 132262795#0 132262795#1 135982518#0 135982518#1 135982506 135982510#0 135982510#1 135982486#0 135982486#1 135982486#2 1131234799 344500891 23288888#1 23288888#2 1131830805#0 675587135#0 675587135#2 675587135#3 675587136#0 -1131830810#0 -135982498#1 -135982498#0 -150052414#1 -150052413#9 -150052413#8 -150052413#6 -150052413#5 -150052413#2 -150052413#0 -1178617196#6 -1178617196#5 -1178617196#3"/>
    </vehicle>
    <vehicle id="12" depart="12.00">
        <route edges="33747844#1 33747844#2 -150052414#1 260210045#1 260210045#2 149955205#7 149955205#8 149955205#9 149955205#10 -1116253887#1 -1122691764 -1116253888 -1116253889 -575161854#1 -1116253895#0 -1116253904#1 -1116253904#0 -1116253905 -1116253906 -885860486#1 -253811695#3 -253811695#1 -253811695#0 -1115567486#1 -1115567486#0 -885860487#2 -885860487#0 -1113328729 1115567482#0 1115567482#1 -1174515961#1 -1174515961#0 -681302090 -1115567477 -1115567475 -1115567473 -699631358#7 -699631358#6 -699631358#4 -699631358#0 -828909012#1 -828909011#1 454486173#1 71760750#1 71931343 71931340#0 71931340#1"/>
    </vehicle>
    <vehicle id="13" depart="13.00">
        <route edges="30588863#14 30588863#15 231372528#0 231372528#1 231372528#2 231372527#0 231372527#2 301566766 23738136#2 301567838 301567837 301568114 32733290#4 301568102 301568099#0 301568099#1 301568099#2 441631405 27496318#4 27496318#5 27496318#6 27496318#7 44676529#0 44676529#1 44676529#2 44676529#3 44676529#4 44677310 255963496#0 255963496#1 255963496#2 32733254#6 32733254#0 32733254#1 32733254#2 35572151 47222274#0 47222274#2 115842637#0 59854991#2 59854991#3 59854991#4 59854991#7 479678139 216686364#0 216686364#1 1301678699 36774609#3 36774609#4 36774609#5 77960512#0 77960512#1 77960512#2 587239929 806941659 23277561#0 23277561#1 23277561#2 23277561#3 23277561#4 23277561#5 23277561#6 23277561#10 23277561#11 23277561#13 23277561#14 23277434#0 23277434#1 23277434#2 23277434#3 204711348 585942486#0 32497676 23189200#1 23189200#2 23189200#3 23189200#4 150052408#1 150052408#2 806941654 479678329 479678328 479678327 997167739 460393002 236537445 460393006 265623029#3 265623029#4 619553646 479678087 479678086 479678085 446894328 533026021 23366588#1 815234620#1 1120761349 1120761348 1120761345 150052435#0 150052435#1 27028192#0 27028192#2 465883863 620080969 620080968#0 620080968#1 237843458 -27032289#1 -155511950 219383753#0 219383753#1 -219383753#1 -219383753#0"/>
    </vehicle>
    <vehicle id="14" depart="14.00">
        <route edges="620080968#0 620080968#1 -620080968#1 -620080968#0 -620080969 -465883863 -620080970 -24865692#10 -24865692#9 -24865692#8 -24865692#7 -24865692#6 -24865692#5 -24865692#4 -24865692#2 -24865692#1 -24865692#0 451606982 808904820#0 808904820#1 808904820#2 1212110062 441619591#0 441619591#1 441619591#3 441619591#4 -151492337#7 -151492337#3 -151492337#1 -151492337#0 -266915114#1 -266915114#0 -808904817 -151492338 -454018365 -23296548 -23296549 1186197506 808904813 726108541 726108551 726108550 703465935#0 703465935#1 -1224648667 -1224648666 -703465934#0 -23296535#2 -23296535#1 -453786057#4 -453786057#2 479678295 455320420 23288757#0 23288757#2 23288757#3 151824728#1 151824728#2 151824728#5 34524852#0 34524852#1 1303980968 151772099 23288957#0 23288957#1 23288957#2 23288957#3 23288957#4 325457399#0 325457399#1 325457399#2 325457399#3 325457399#4 325457399#5 23288944#0 23288944#1 23288944#3 23288944#4 23288944#6 23288944#7 23288944#8 23288944#10 23837911#0 23837911#1 23837911#2 23837911#3 292179033#0 292179033#1 292179033#3 292179033#4 292179033#5 292179033#6 292179033#7 292179033#8 292179033#9 23288923#0 23288923#1 23288923#2 23288923#3 23288923#5 23288923#6 132262795#0 132262795#1 135982518#0 135982518#1 135982506 135982510#0 135982510#1 135982486#0 135982486#1 135982486#2 27235474#0 27235474#1 135982515#1 135982515#2 346001488#0 346004296#1 346004296#2 1131234805#0 1131234806#0 1131234806#2 1131234806#3 346004297#0 346004298#0 346004298#2 346004298#3 346004298#4 346004298#5 135982494#0 135982494#1 135982504 135982495#0 1178796276#0 1178796276#1 1178796277 135982482 135982477#1 135982499#0 135982499#1 135982499#3 170939110"/>
    </vehicle>
    <vehicle id="15" depart="15.00">
        <route edges="-299421435#1 -24589638#3 -24589638#2 -24589638#1 -24589638#0 1186037304#3 1186037304#4 1186037304#5 1186037304#6 1186037332 23453129#1 23453129#2 288787060#0 288787060#1 288787060#2 288787060#3 23275345#9 23275345#10 23275345#11 23275345#13 23275345#15 23275345#16 450836849#2 450836849#3 450836849#6 450836849#7 23210836#1 23210836#2 23210836#5 23210836#6 77955974#0 23288787#0 23288787#1 23288787#2 23288787#3 661413466#1 661413466#2 661413466#3 661413466#4 648493809#0 648493809#1 648493809#5 648493809#6 672517249#0 672517249#2 23288767#0 23288767#1 23288767#2 23288767#4 23288767#5 23277071#0 23277071#1 1118443339#0 839269637 585918817#1 150018091 585918818 1294567928#0 80655884#0 80655884#1 352056867#0 352056866#0 151824735#0 151824735#1 151824735#2 151824730#1 151824730#3 132006073#1 479678295 151737998#0 151737998#1 34547753#0 34547753#1 34549675#0 34549675#1 281681811#3"/>
    </vehicle>
    <vehicle id="16" depart="16.00">
        <route edges="44369311 23296265#1 23296265#2 23296265#3 23296265#4 -381761326#0 26979311#1 32497919#5 132106761#0 132106761#1 132106761#3 132106761#4 132106761#5 253832442#0 253832442#1 253832442#2 253832442#3 1178769908#0 1178769908#1 23296227#0 23296227#1 1228111258#0 33747684#0 658146305#0 658146305#1 658146305#2 150029324#0 675587135#2 675587135#3 675587136#0 370093519#2 969701318#0 969701318#1 23288868 83078456#0 83078456#1 83078456#2 83078456#5 83078456#9 23210836#1 23210836#2 23210836#5 23210836#6 77955974#0 23288787#0 23288787#1 23288787#2 23288787#3 661413466#1 661413466#2 661413466#3 661413466#4 -23332076 1152037589 -455561985#4 -455561985#2 -455561985#1 -455561985#0 -1116542953#0 -39673908#5 -39673908#3 -39673908#2 -39673908#1 460508604 806941659 23277561#0 23277561#1 23277561#2 23277561#3 23277561#4 23277561#5 23277561#6 23277561#10 23277561#11 23277561#13 44614042#0 44614042#1 204710690#2 204710683 359549137#0 359549137#1 359549137#2 359549137#3 359549137#4 359549137#6 359549137#8 359549137#9 359549137#10 359549137#11 119743102#0 119743102#1 119743102#2 119743102#3 119743102#4 119743102#5 119743102#6 119743102#7 -119743102#7"/>
    </vehicle>
    <vehicle id="17" depart="17.00">
        <route edges="33759592#0 33759592#1 1157709755 -23296863 33759886#0 33759886#1 33759886#2 95408277#5 95408277#6 95408277#7 95408277#8 23271728#0 23271728#1 23271728#3 23276766#0 23276766#1 23276766#2 23276766#3 945850922 33523466 945850934#1 23837909#0 23837909#1 23837909#2 23837909#3 23837909#4 23837909#6 23837909#8 23288945#0 23288945#1 23288945#2 23288945#4 648493813#0 648493813#1 648493813#2 648493813#3 151772110#0 151772110#1 1303980970#0 1303980966 1303980969 1304381643#0 1304381643#1 1304381643#2 1304381642 1302766172#0 1302766172#1 1302766172#3 1288780345#0 1288780345#1 1288780345#2 1288781680#1 1288781680#2 1288781680#3 1288781680#4 1288781680#5 1288938845#0 1288938844#0 1288938844#2 1315944433 1190711536#1 1190711536#2 1190711536#3 96199150#0 96199150#2 96199150#3 1190711540 737507747#0 995253604#0 621631640 621631637#0 621631637#1 621631637#2 621631637#3 1190711538 1190711539#1 119742505#0 119742505#2 27032978#0 27032978#1 27032978#2 27032973#0 27032973#1 27032973#2"/>
    </vehicle>
    <vehicle id="18" depart="18.00">
        <route edges="-55467225 -55467222#0 1203136850 -108300603#0 -412449417 -909113130#1 -375536112#1 -119742504#5 -119742504#3 -119742504#2 -119742504#1 -119742504#0 -809282989#1 -1215961324#1 -31743212#2 -31743212#0 1170993275 23275345#0 23275345#2 23275345#3 23275345#4 23275345#9 23275345#10 23275345#11 23275345#13 23275345#15 23275345#16 450836849#2 450836849#3 450836849#6 450836849#7 387442533#2 387442533#4 387442533#5 387442533#6 296932687#1 23288872 1131830811 335384211#1 335384211#2 1131830806#0 1131830806#1 675587137#0 675587137#1 370093518 451474301#0 135982516#0 135982516#1 1131234797 135982511#1 135982511#2 135982511#3 135982511#4 135982511#5 135982511#6 135982511#7 135982511#8 135982530 43188683#0 43188683#1 -135982534#1 -135982534#0 -347650517#6 -347650517#4 -347650517#3 -27108506#2 -27108506#1 30192894 1120188325#0"/>
    </vehicle>
    <vehicle id="19" depart="19.00">
        <route edges="-135982499#0 -135982477#1 135982520#1 135982520#3 135982520#5 135982520#7 1229197619#0 135982487 32497919#1 32497919#2 32497919#4 32497919#5 132106761#0 132106761#1 132106761#3 132106761#4 132106761#5 253832442#0 253832442#1 253832442#2 253832442#3 1178769908#0 1178769908#1 23296227#0 23296227#1 1228111258#0 33747684#0 658146305#0 658146305#1 658146305#2 33747765#2 33747765#3 370093517 370093518 451474301#0 135982516#0 135982516#1 1131234797 135982511#1 135982511#2 135982511#3 135982511#4 135982511#5 135982511#6 135982511#7 135982511#8 135982530 23288915#0 23288915#1 135982488#0 135982476#0 135982476#1 135982476#2 135982476#3 135982476#4 135982476#5 135982476#6 135982476#7 945119921 23295986 23288931#0 23288931#1 23288931#2 23288931#3 23288931#4 23288931#5 23288931#7 23288931#8 945850934#1 23837909#0 23837909#1 23837909#2 23837909#3 23837909#4 23837909#6 23837909#8 23288945#0 23288945#1 23288945#2 23288945#4 648493813#0 648493813#1 648493813#2 648493813#3 151772110#0 151772110#1 1303980970#0 1303980966 1303980969 1304381643#0 1304381643#1 1304381643#2 1304381642 1302766172#0 1302766172#1 1302766172#3 1288780345#0 1288780345#1 1288780345#2 1288781680#1 1288781680#2 1288781680#3 1288781680#4 1288781680#5 1288938845#0 1288938844#0 1288938844#2 1315944433 1190711536#1 1190711536#2 1190711536#3 96199150#0 96199150#2 96199150#3 1190711540 737507747#0 995253604#0 621631640 621631637#0 621631637#1 621631637#2 621631637#3 1190711538 1190711539#1 1327065089 23971068#0 23971068#2 78498530#0 78498530#2 151117320#0 1082005059#0 1082005059#1 1167538900#0 1167538900#1 -1167538900#1"/>
    </vehicle>
    <vehicle id="20" depart="20.00">
        <route edges="-314335855#1 -314335855#0 39842923#1 39842923#2 39842923#3 216677152#2 479678098#0 216930806#0 216930806#1 23621681#7 23621681#8 23621681#9 23621681#10 1251207463 1251207469 452137905#0 452137905#1 23815777#0 23815777#1 23815777#3 77960510#0 77960510#1 77960510#2 77960510#4 -32003370#1 -32003370#0 -454704826 -912941751 1227322419#0 1227322419#1 43205393#0 23453044#0 23453044#1 23453044#2 23453044#3 23453044#5 23453044#6 23453044#7 23453044#8 33831608#0 33831608#1 34395278#1 34395278#3 34395278#4 93783755#0 93783755#1 618464280 23288823#0 23288823#1 23288823#3 23288823#5 387442533#2 387442533#4 387442533#5 387442533#6 296932687#1 23288872 1131830811 335384211#1 335384211#2 1131830806#0 1131830806#1 675587137#0 675587137#1 370093518 451474301#0 135982516#0 135982516#1 1131234797 135982511#1 135982511#2 135982511#3 135982511#4 135982511#5 135982511#6 135982511#7 135982511#8 135982530 23288915#0 23288915#1 135982488#0 135982476#0 135982476#1 135982476#2 135982476#3 135982476#4 135982476#5 135982476#6 135982476#7 945119921 -1146937084 -23295984 -455829556#1 -757678616#1 -235823929#7 -235823929#6 -235823929#5 -235823929#4 -235823929#3 -235823929#2 -235823929#1 -235823929#0 -767492458#3 -767492458#2 -767492458#1 767492458#1"/>
    </vehicle>
    <vehicle id="21" depart="21.00">
        <route edges="-79872079#2 -79872079#1 -79872079#0 454364217 41260493#0 41260493#1 154144140#0 154144140#1 453604588 453604583 79872081#1 79872079#0 79872079#1 79872079#2 405111236#1 78034668 39673907#1 39673907#2 25155150#0 25155150#2 25155150#3 25155150#4 25155150#5 78034666 25155146#0 25155146#1 25155146#2 904711706#1 904711706#2 25155137#0 25155137#2 479678098#0 479678098#1 479678098#2 -393171683#7 -393171683#5 -393171683#4 -393171683#3 -393171683#2 -393171683#1 -393171683#0 393171683#0 393171683#1"/>
    </vehicle>
    <vehicle id="22" depart="22.00">
        <route edges="43469291#1 293298723#0 205519279#0 322432843#0 1118443340 205519267#1 1118443344#0 1118443344#1 148678210#0 148678210#1 447576658#0 447576658#1 447576658#2 447576658#3 323825888#1 323825888#2 352056866#0 151824735#0 151824735#1 151824735#2 151824730#1 151824730#3 132006073#1 479678295 455320420 23288757#0 23288757#2 23288757#3 151824728#1 151824728#2 151824728#5 34524852#0 34524852#1 1302766174 1303980969 1304381643#0 1304381643#1 1304381643#2 1304381642 1302766172#0 1302766172#1 1302766172#3 23289817#1 -257707685#1 329319926#1 530507951#1 530507951#2 530507951#3 119742500#1 119742500#2 984204139#0 984204139#2 26256667#0 26256667#1 23291344#1 1188469824 1188469822 1188469823 1188469820 1188469810#1 1188469819#0 1188469819#1 1188469815 96199138 451641095 451641093 42306086 451641096#0 42305094#0"/>
    </vehicle>
    <vehicle id="23" depart="23.00">
        <route edges="-26982335#1 33919444#2 33919444#3 150052422#0 150052422#1 479678084 799376647 1215611831 23366591#0 23366591#1 460393005 460393004 460393000 997167740 236262657 447268540#0 447268540#1 37931741#2 37931741#3 37931741#4 37931741#5 37931741#6 37931741#8 132262789 132262790#1 132262790#3 132262790#5 871932800 1159923498 23277216 322430552#0 322430552#1 322430552#3 322430552#4 816256658#0 816256658#1 41277870#1 -1151980384#1 -23184329#2 -23184329#0 -132262800 23184327#0 23184327#1 23184327#2 23184327#5 23332081#0 23332081#1 23288767#0 23288767#1 23288767#2 37931738#1"/>
    </vehicle>
    <vehicle id="24" depart="24.00">
        <route edges="32566156#3 55302014#1 454704832#0 454704832#2 -1215961324#1 -31743212#2 -31743212#0 1170993275 23275345#0 23275345#2 23275345#3 23275345#4 23275345#9 23275345#10 23275345#11 23275345#13 23275345#15 23275345#16 450836849#2 450836849#3 450836849#6 450836849#7 23210836#1 23210836#2 23210836#5 23210836#6 77955974#0 23288787#0 23288787#1 23288787#2 23288787#3 661413466#1 661413466#2 661413466#3 661413466#4 648493809#0 648493809#1 648493809#5 648493809#6 672517249#0 672517249#2 23288767#0 23288767#1 23288767#2 23288767#4 23288767#5 23277071#0 23277071#1 1118443339#0 839269637 585918817#1 150018091 585918818 1294567928#0 80655884#0 80655884#1 352056867#0 352056866#0 151824735#0 151824735#1 151824735#2 151824730#1 151824730#3 132006073#1 479678295 151737998#0 151737998#1 23295215#0 23295215#1 1272575219 281681813#0 281681813#1 875182004 -23295182#4 -23295182#3 -23295182#1 -23295182#0 293300507#1 293300507#2 293300507#3 23189378#0 43469298#1 43469298#2"/>
    </vehicle>
    <vehicle id="25" depart="25.00">
        <route edges="31322298#0 31322298#1 31322298#2 31322298#4 31322298#5 31322298#6 31322298#7 31322298#8 31322298#9 31322298#10 31322298#11 31322298#12 31322298#13 453785959 455829556#1 23295984 1146937084 23295986 23288931#0 23288931#1 23288931#2 23288931#3 23288931#4 23288931#5 23288931#7 23288931#8 945850934#1 23837909#0 23837909#1 23837909#2 23837909#3 23837909#4 23837909#6 23837909#8 23288945#0 23288945#1 23288945#2 23288945#4 648493813#0 648493813#1 648493813#2 648493813#3 151772108#0 151772108#1 34524636#0 23288960#3 23288960#5 23288960#6 151824722#1 151824722#2 151824722#4 151772103#0 479678291#0 479678291#1 151737991#0 453786057#1 453786057#3 23296535#0 23296535#2 703465934#0 703465934#2 1224648667 726108536#0 726108536#1 726108545 726108547 726108543#0 726108543#1 726108543#2 726108532 808904812 726108531 23296548 454018365 151492338 808904817 266915114#0 266915114#1 151492337#0 151492337#1 151492337#2 151492337#6 873135418 23296571#4 946526999 27028172#0 27028172#1 27028172#2 27028172#3 27028172#6 27028172#7 1120761346 23366578#0 23366578#1 446894319#1 446894319#2 446894319#4 446894319#5 446894326 799376647 150052273 150052409 619553647 27028266#0 27028266#1 23303645#0 23303645#1 26961362#0 26961362#1"/>
    </vehicle>
    <vehicle id="26" depart="26.00">
        <route edges="35934892#2 35934892#3 35383153#1 945119924#1 35742705#1 35742705#2 1117420776 454925332 210196700#1 23290264#2 23290264#3 23290264#4 23288944#6 23837909#2 23837909#3 23837909#4 23837909#6 23837909#8 23288945#0 23288945#1 23288945#2 23288945#4 648493813#0 648493813#1 648493813#2 648493813#3 151772108#0 151772108#1 34524878#0 34524878#1 34524878#2 34524878#3 33832076#0 33832076#1 -33832076#1"/>
    </vehicle>
    <vehicle id="27" depart="27.00">
        <route edges="319034990 41430085#1 41430085#2 41430085#3 -32210113#2 -32210113#1 -32210113#0 -32241968#5 -32241968#4 -32241968#3 -893144097 23189293#0 23189293#1 23189293#2 23189293#3 23189293#4 32210009#0 260478261 23218632 238688553#0 238688553#1 238688553#2 23271629#1 23271629#2 963609087#0 963609087#2 23184464#0 23184464#1 23184464#2 455333836 23271834#1 23271834#2 455333831 23271826 968774218 34036609#4 236468429#0 236468429#1 135982476#3 135982476#4 135982476#5 135982476#6 135982476#7 945119921 -1146937084 -23295984 -455829556#1 -757678616#1 -235823929#7 -235823929#6 -235823929#5 -235823929#4 -235823929#3 -235823929#2 -235823929#1 -235823929#0"/>
    </vehicle>
    <vehicle id="28" depart="28.00">