<additional>
  <inductionLoop id="0_0" lane="a58[1]_0" pos="-5" freq="1800" file="e1_real_output.xml" />
  <inductionLoop id="1_0" lane="b1[0]_0" pos="-5" freq="1800" file="e1_real_output.xml" />
  <inductionLoop id="2_0" lane="b52_0" pos="-5" freq="1800" file="e1_real_output.xml" />
  <inductionLoop id="3_0" lane="a78[0]_0" pos="-5" freq="1800" file="e1_real_output.xml" />
  <inductionLoop id="4_0" lane="a201_0" pos="-5" freq="1800" file="e1_real_output.xml" />
  <inductionLoop id="5_0" lane="a203[1]_0" pos="-5" freq="1800" file="e1_real_output.xml" />
  <inductionLoop id="6_0" lane="b8_0" pos="-5" freq="1800" file="e1_real_output.xml" />
  <inductionLoop id="7_0" lane="b56[1][0]_0" pos="-5" freq="1800" file="e1_real_output.xml" />
  <inductionLoop id="8_0" lane="b13[0]_0" pos="-5" freq="1800" file="e1_real_output.xml" />
  <inductionLoop id="9_0" lane="b53_0" pos="-5" freq="1800" file="e1_real_output.xml" />
  <inductionLoop id="10_0" lane="b12_0" pos="-5" freq="1800" file="e1_real_output.xml" />
  <inductionLoop id="11_0" lane="a204[1][1]_0" pos="-5" freq="1800" file="e1_real_output.xml" />
  <inductionLoop id="12_0" lane="a203[0]_0" pos="-5" freq="1800" file="e1_real_output.xml" />
  <inductionLoop id="13_0" lane="b3[0]_0" pos="-5" freq="1800" file="e1_real_output.xml" />
  <inductionLoop id="14_0" lane="b49[0]_0" pos="-5" freq="1800" file="e1_real_output.xml" />
  <inductionLoop id="15_0" lane="b14_0" pos="-5" freq="1800" file="e1_real_output.xml" />
  <inductionLoop id="16_0" lane="b39[0]_0" pos="-5" freq="1800" file="e1_real_output.xml" />
  <inductionLoop id="17_0" lane="b3[1]_0" pos="-5" freq="1800" file="e1_real_output.xml" />
  <inductionLoop id="18_0" lane="b35[1][0]_0" pos="-5" freq="1800" file="e1_real_output.xml" />
  <inductionLoop id="19_0" lane="b16[0]_0" pos="-5" freq="1800" file="e1_real_output.xml" />
  <inductionLoop id="20_0" lane="a197_0" pos="-5" freq="1800" file="e1_real_output.xml" />
  <inductionLoop id="21_0" lane="b31_0" pos="-5" freq="1800" file="e1_real_output.xml" />
  <inductionLoop id="22_0" lane="a113_0" pos="-5" freq="1800" file="e1_real_output.xml" />
  <inductionLoop id="23_0" lane="b2[0]_0" pos="-5" freq="1800" file="e1_real_output.xml" />
  <inductionLoop id="24_0" lane="b24_0" pos="-5" freq="1800" file="e1_real_output.xml" />
  <inductionLoop id="25_0" lane="b38[0]_0" pos="-5" freq="1800" file="e1_real_output.xml" />
  <inductionLoop id="26_0" lane="b4[1][1][1]_0" pos="-5" freq="1800" file="e1_real_output.xml" />
  <inductionLoop id="27_0" lane="b50[0]_0" pos="-5" freq="1800" file="e1_real_output.xml" />
  <inductionLoop id="28_0" lane="a72[0]_0" pos="-5" freq="1800" file="e1_real_output.xml" />
</additional>