<?xml version="1.0" encoding="UTF-8"?>

<!-- generated on 2024-08-20 12:37:57.401003 by routeSampler.py v1_19_0+0000-baa66a0f364
<configuration>
    <route-files value=".\sampleRoutes.rou.xml"/>
    <edgedata-files value=".\edgedata.xml"/>
    <output-file value="generatedRoutes.rou.xml"/>
    <optimize value="full"/>
    <min-count value="3"/>
</configuration>
-->

<routes xmlns:xsi="http://www.w3.org/2001/XMLSchema-instance" xsi:noNamespaceSchemaLocation="http://sumo.dlr.de/xsd/routes_file.xsd">
<!-- begin="0.0" end="3600.0" -->
    <vehicle id="0" depart="49.22">
        <route edges="a78[0] a56a a56b a77bc a77cd a53cd a53[0] a53[1][0] a79 a68 a11 b38[0] b38[0]a b38[1][0] b38[1][1] b38[1][1]a b56[1][0] b56[1][1] b5[1][0]+66 b5[1][1][1] b16[0]"/>
    </vehicle>
    <vehicle id="1" depart="55.10">
        <route edges="a203[1] a203[1]b a202 a34 a134 a134b a133 a31 a115 a110 a185 a92 a90 am91 a88 a187 a191 a17 a71 b2[0] b2[1][0] b2[1][1][0] b21"/>
    </vehicle>
    <vehicle id="2" depart="61.78">
        <route edges="a203[1] a203[1]b a202 a34 a134 a134b a133 a31 a115 a110 a185 a92 a90 am91 a88 a187 a191 a17 a71 b2[0] b2[1][0] b2[1][1][0] b21"/>
    </vehicle>
    <vehicle id="3" depart="79.87">
        <route edges="a55 a55b a125 b12 b50[0] b50[1] b49[1] b55 b35[1][1][0] b20000+35[1][1][1][0] b35[1][1][1][1] am2 a54"/>
    </vehicle>
    <vehicle id="4" depart="99.42">
        <route edges="a55 a55b a125 b12 b50[0] b50[1] b49[1] b55 b35[1][1][0] b20000+35[1][1][1][0] b35[1][1][1][1] am2 a54"/>
    </vehicle>
    <vehicle id="5" depart="116.34">
        <route edges="a78[0] a56a a56b a77bc a77cd a53cd a53[0] a53[1][0] a79 a68 a11 b38[0] b38[0]a b38[1][0] b38[1][1] b38[1][1]a b56[1][0] b56[1][1] b5[1][0]+66 b5[1][1][1] b16[0]"/>
    </vehicle>
    <vehicle id="6" depart="132.56">
        <route edges="a55 a55b a125 b12 b50[0] b50[1] b49[1] b55 b35[1][1][0] b20000+35[1][1][1][0] b35[1][1][1][1] am2 a54"/>
    </vehicle>
    <vehicle id="7" depart="139.81">
        <route edges="a78[0] a56a a56b a77bc a77cd a53cd a53[0] a53[1][0] a79 a68 a11 b2[0] b2[1][0] b24 b23 b17[0]"/>
    </vehicle>
    <vehicle id="8" depart="140.27">
        <route edges="a78[0] a56a a56b a77bc a77cd a53cd a53[0] a53[1][0] a79 a68 a11 b2[0] b2[1][0] b24 b23 b17[0]"/>
    </vehicle>
    <vehicle id="9" depart="141.07">
        <route edges="a78[0] a56a a56b a77bc a77cd a53cd a53[0] a53[1][0] a79 a68 a11 b2[0] b2[1][0] b24 b23 b17[0]"/>
    </vehicle>
    <vehicle id="10" depart="147.84">
        <route edges="a78[0] a56a a56b a77bc a77cd a53cd a53[0] a53[1][0] a79 a68 a11 b38[0] b38[0]a b38[1][0] b38[1][1] b38[1][1]a b56[1][0] b56[1][1] b5[1][0]+66 b5[1][1][1] b16[0]"/>
    </vehicle>
    <vehicle id="11" depart="156.24">
        <route edges="a203[1] a203[1]b a202 a34 a134 a134b a133 a31 a115 a110 a185 a92 a90 am91 a88 a187 a191 a17 a71 b2[0] b2[1][0] b2[1][1][0] b21"/>
    </vehicle>
    <vehicle id="12" depart="168.83">
        <route edges="a78[0] a56a a56b a77bc a77cd a53cd a53[0] a53[1][0] a79 a68 a11 b38[0] b38[0]a b38[1][0] b38[1][1] b38[1][1]a b56[1][0] b56[1][1] b5[1][0]+66 b5[1][1][1] b16[0]"/>
    </vehicle>
    <vehicle id="13" depart="171.78">
        <route edges="a55 a55b a125 b12 b50[0] b50[1] b49[1] b55 b35[1][1][0] b20000+35[1][1][1][0] b35[1][1][1][1] am2 a54"/>
    </vehicle>
    <vehicle id="14" depart="173.01">
        <route edges="a78[0] a56a a56b a77bc a77cd a53cd a53[0] a53[1][0] a79 a68 a11 b2[0] b2[1][0] b24 b23 b17[0]"/>
    </vehicle>
    <vehicle id="15" depart="182.77">
        <route edges="a78[0] a56a a56b a77bc a77cd a53cd a53[0] a53[1][0] a79 a68 a11 b38[0] b38[0]a b38[1][0] b38[1][1] b38[1][1]a b56[1][0] b56[1][1] b5[1][0]+66 b5[1][1][1] b16[0]"/>
    </vehicle>
    <vehicle id="16" depart="192.55">
        <route edges="a203[1] a203[1]b a202 a34 a134 a134b a133 a31 a115 a110 a185 a92 a90 am91 a88 a187 a191 a17 a71 b2[0] b2[1][0] b2[1][1][0] b21"/>
    </vehicle>
    <vehicle id="17" depart="201.14">
        <route edges="a78[0] a56a a56b a77bc a77cd a53cd a53[0] a53[1][0] a79 a68 a11 b38[0] b38[0]a b38[1][0] b38[1][1] b38[1][1]a b56[1][0] b56[1][1] b5[1][0]+66 b5[1][1][1] b16[0]"/>
    </vehicle>
    <vehicle id="18" depart="208.31">
        <route edges="a55 a55b a125 b12 b50[0] b50[1] b49[1] b55 b35[1][1][0] b20000+35[1][1][1][0] b35[1][1][1][1] am2 a54"/>
    </vehicle>
    <vehicle id="19" depart="209.50">
        <route edges="a55 a55b a125 b12 b50[0] b50[1] b49[1] b55 b35[1][1][0] b20000+35[1][1][1][0] b35[1][1][1][1] am2 a54"/>
    </vehicle>
    <vehicle id="20" depart="228.64">
        <route edges="a203[1] a203[1]b a202 a34 a134 a134b a133 a31 a115 a110 a185 a92 a90 am91 a88 a187 a191 a17 a71 b2[0] b2[1][0] b2[1][1][0] b21"/>
    </vehicle>
    <vehicle id="21" depart="255.39">
        <route edges="a78[0] a56a a56b a77bc a77cd a53cd a53[0] a53[1][0] a79 a68 a11 b2[0] b2[1][0] b24 b23 b17[0]"/>
    </vehicle>
    <vehicle id="22" depart="271.29">
        <route edges="a55 a55b a125 b12 b50[0] b50[1] b49[1] b55 b35[1][1][0] b20000+35[1][1][1][0] b35[1][1][1][1] am2 a54"/>
    </vehicle>
    <vehicle id="23" depart="271.56">
        <route edges="a78[0] a56a a56b a77bc a77cd a53cd a53[0] a53[1][0] a79 a68 a11 b38[0] b38[0]a b38[1][0] b38[1][1] b38[1][1]a b56[1][0] b56[1][1] b5[1][0]+66 b5[1][1][1] b16[0]"/>
    </vehicle>
    <vehicle id="24" depart="274.32">
        <route edges="a78[0] a56a a56b a77bc a77cd a53cd a53[0] a53[1][0] a79 a68 a11 b38[0] b38[0]a b38[1][0] b38[1][1] b38[1][1]a b56[1][0] b56[1][1] b5[1][0]+66 b5[1][1][1] b16[0]"/>
    </vehicle>
    <vehicle id="25" depart="291.14">
        <route edges="a78[0] a56a a56b a77bc a77cd a53cd a53[0] a53[1][0] a79 a68 a11 b38[0] b38[0]a b38[1][0] b38[1][1] b38[1][1]a b56[1][0] b56[1][1] b5[1][0]+66 b5[1][1][1] b16[0]"/>
    </vehicle>
    <vehicle id="26" depart="297.89">
        <route edges="a78[0] a56a a56b a77bc a77cd a53cd a53[0] a53[1][0] a79 a68 a11 b38[0] b38[0]a b38[1][0] b38[1][1] b38[1][1]a b56[1][0] b56[1][1] b5[1][0]+66 b5[1][1][1] b16[0]"/>
    </vehicle>
    <vehicle id="27" depart="298.41">
        <route edges="a78[0] a56a a56b a77bc a77cd a53cd a53[0] a53[1][0] a79 a68 a11 b38[0] b38[0]a b38[1][0] b38[1][1] b38[1][1]a b56[1][0] b56[1][1] b5[1][0]+66 b5[1][1][1] b16[0]"/>
    </vehicle>
    <vehicle id="28" depart="299.82">
        <route edges="a78[0] a56a a56b a77bc a77cd a53cd a53[0] a53[1][0] a79 a68 a11 b2[0] b2[1][0] b24 b23 b17[0]"/>
    </vehicle>
    <vehicle id="29" depart="318.27">
        <route edges="a55 a55b a125 b12 b50[0] b50[1] b49[1] b55 b35[1][1][0] b20000+35[1][1][1][0] b35[1][1][1][1] am2 a54"/>
    </vehicle>
    <vehicle id="30" depart="330.13">
        <route edges="a203[1] a203[1]b a202 a34 a134 a134b a133 a31 a115 a110 a185 a92 a90 am91 a88 a187 a191 a17 a71 b2[0] b2[1][0] b2[1][1][0] b21"/>
    </vehicle>
    <vehicle id="31" depart="330.48">
        <route edges="a55 a55b a125 b12 b50[0] b50[1] b49[1] b55 b35[1][1][0] b20000+35[1][1][1][0] b35[1][1][1][1] am2 a54"/>
    </vehicle>
    <vehicle id="32" depart="337.94">
        <route edges="a203[1] a203[1]b a202 a34 a134 a134b a133 a31 a115 a110 a185 a92 a90 am91 a88 a187 a191 a17 a71 b2[0] b2[1][0] b2[1][1][0] b21"/>
    </vehicle>
    <vehicle id="33" depart="338.97">
        <route edges="a55 a55b a125 b12 b50[0] b50[1] b49[1] b55 b35[1][1][0] b20000+35[1][1][1][0] b35[1][1][1][1] am2 a54"/>
    </vehicle>
    <vehicle id="34" depart="359.95">
        <route edges="a78[0] a56a a56b a77bc a77cd a53cd a53[0] a53[1][0] a79 a68 a11 b38[0] b38[0]a b38[1][0] b38[1][1] b38[1][1]a b56[1][0] b56[1][1] b5[1][0]+66 b5[1][1][1] b16[0]"/>
    </vehicle>
    <vehicle id="35" depart="384.32">
        <route edges="a55 a55b a125 b12 b50[0] b50[1] b49[1] b55 b35[1][1][0] b20000+35[1][1][1][0] b35[1][1][1][1] am2 a54"/>
    </vehicle>
    <vehicle id="36" depart="408.47">
        <route edges="a55 a55b a125 b12 b50[0] b50[1] b49[1] b55 b35[1][1][0] b20000+35[1][1][1][0] b35[1][1][1][1] am2 a54"/>
    </vehicle>
    <vehicle id="37" depart="432.59">
        <route edges="a203[1] a203[1]b a202 a34 a134 a134b a133 a31 a115 a110 a185 a92 a90 am91 a88 a187 a191 a17 a71 b2[0] b2[1][0] b2[1][1][0] b21"/>
    </vehicle>
    <vehicle id="38" depart="459.68">
        <route edges="a78[0] a56a a56b a77bc a77cd a53cd a53[0] a53[1][0] a79 a68 a11 b2[0] b2[1][0] b24 b23 b17[0]"/>
    </vehicle>
    <vehicle id="39" depart="462.60">
        <route edges="a78[0] a56a a56b a77bc a77cd a53cd a53[0] a53[1][0] a79 a68 a11 b2[0] b2[1][0] b24 b23 b17[0]"/>
    </vehicle>
    <vehicle id="40" depart="477.88">
        <route edges="a78[0] a56a a56b a77bc a77cd a53cd a53[0] a53[1][0] a79 a68 a11 b38[0] b38[0]a b38[1][0] b38[1][1] b38[1][1]a b56[1][0] b56[1][1] b5[1][0]+66 b5[1][1][1] b16[0]"/>
    </vehicle>
    <vehicle id="41" depart="479.47">
        <route edges="a78[0] a56a a56b a77bc a77cd a53cd a53[0] a53[1][0] a79 a68 a11 b38[0] b38[0]a b38[1][0] b38[1][1] b38[1][1]a b56[1][0] b56[1][1] b5[1][0]+66 b5[1][1][1] b16[0]"/>
    </vehicle>
    <vehicle id="42" depart="481.87">
        <route edges="a203[1] a203[1]b a202 a34 a134 a134b a133 a31 a115 a110 a185 a92 a90 am91 a88 a187 a191 a17 a71 b2[0] b2[1][0] b2[1][1][0] b21"/>
    </vehicle>
    <vehicle id="43" depart="498.07">
        <route edges="a78[0] a56a a56b a77bc a77cd a53cd a53[0] a53[1][0] a79 a68 a11 b38[0] b38[0]a b38[1][0] b38[1][1] b38[1][1]a b56[1][0] b56[1][1] b5[1][0]+66 b5[1][1][1] b16[0]"/>
    </vehicle>
    <vehicle id="44" depart="527.78">
        <route edges="a55 a55b a125 b12 b50[0] b50[1] b49[1] b55 b35[1][1][0] b20000+35[1][1][1][0] b35[1][1][1][1] am2 a54"/>
    </vehicle>
    <vehicle id="45" depart="558.15">
        <route edges="a78[0] a56a a56b a77bc a77cd a53cd a53[0] a53[1][0] a79 a68 a11 b38[0] b38[0]a b38[1][0] b38[1][1] b38[1][1]a b56[1][0] b56[1][1] b5[1][0]+66 b5[1][1][1] b16[0]"/>
    </vehicle>
    <vehicle id="46" depart="571.13">
        <route edges="a55 a55b a125 b12 b50[0] b50[1] b49[1] b55 b35[1][1][0] b20000+35[1][1][1][0] b35[1][1][1][1] am2 a54"/>
    </vehicle>
    <vehicle id="47" depart="593.40">
        <route edges="a55 a55b a125 b12 b50[0] b50[1] b49[1] b55 b35[1][1][0] b20000+35[1][1][1][0] b35[1][1][1][1] am2 a54"/>
    </vehicle>
    <vehicle id="48" depart="598.38">
        <route edges="a203[1] a203[1]b a202 a34 a134 a134b a133 a31 a115 a110 a185 a92 a90 am91 a88 a187 a191 a17 a71 b2[0] b2[1][0] b2[1][1][0] b21"/>
    </vehicle>
    <vehicle id="49" depart="610.85">
        <route edges="a203[1] a203[1]b a202 a34 a134 a134b a133 a31 a115 a110 a185 a92 a90 am91 a88 a187 a191 a17 a71 b2[0] b2[1][0] b2[1][1][0] b21"/>
    </vehicle>
    <vehicle id="50" depart="631.19">
        <route edges="a78[0] a56a a56b a77bc a77cd a53cd a53[0] a53[1][0] a79 a68 a11 b38[0] b38[0]a b38[1][0] b38[1][1] b38[1][1]a b56[1][0] b56[1][1] b5[1][0]+66 b5[1][1][1] b16[0]"/>
    </vehicle>
    <vehicle id="51" depart="658.32">
        <route edges="a78[0] a56a a56b a77bc a77cd a53cd a53[0] a53[1][0] a79 a68 a11 b38[0] b38[0]a b38[1][0] b38[1][1] b38[1][1]a b56[1][0] b56[1][1] b5[1][0]+66 b5[1][1][1] b16[0]"/>
    </vehicle>
    <vehicle id="52" depart="663.60">
        <route edges="a78[0] a56a a56b a77bc a77cd a53cd a53[0] a53[1][0] a79 a68 a11 b38[0] b38[0]a b38[1][0] b38[1][1] b38[1][1]a b56[1][0] b56[1][1] b5[1][0]+66 b5[1][1][1] b16[0]"/>
    </vehicle>
    <vehicle id="53" depart="699.39">
        <route edges="a78[0] a56a a56b a77bc a77cd a53cd a53[0] a53[1][0] a79 a68 a11 b38[0] b38[0]a b38[1][0] b38[1][1] b38[1][1]a b56[1][0] b56[1][1] b5[1][0]+66 b5[1][1][1] b16[0]"/>
    </vehicle>
    <vehicle id="54" depart="699.77">
        <route edges="a78[0] a56a a56b a77bc a77cd a53cd a53[0] a53[1][0] a79 a68 a11 b2[0] b2[1][0] b24 b23 b17[0]"/>
    </vehicle>
    <vehicle id="55" depart="738.16">
        <route edges="a203[1] a203[1]b a202 a34 a134 a134b a133 a31 a115 a110 a185 a92 a90 am91 a88 a187 a191 a17 a71 b2[0] b2[1][0] b2[1][1][0] b21"/>
    </vehicle>
    <vehicle id="56" depart="744.06">
        <route edges="a55 a55b a125 b12 b50[0] b50[1] b49[1] b55 b35[1][1][0] b20000+35[1][1][1][0] b35[1][1][1][1] am2 a54"/>
    </vehicle>
    <vehicle id="57" depart="746.02">
        <route edges="a203[1] a203[1]b a202 a34 a134 a134b a133 a31 a115 a110 a185 a92 a90 am91 a88 a187 a191 a17 a71 b2[0] b2[1][0] b2[1][1][0] b21"/>
    </vehicle>
    <vehicle id="58" depart="765.82">
        <route edges="a78[0] a56a a56b a77bc a77cd a53cd a53[0] a53[1][0] a79 a68 a11 b38[0] b38[0]a b38[1][0] b38[1][1] b38[1][1]a b56[1][0] b56[1][1] b5[1][0]+66 b5[1][1][1] b16[0]"/>
    </vehicle>
    <vehicle id="59" depart="772.52">
        <route edges="a55 a55b a125 b12 b50[0] b50[1] b49[1] b55 b35[1][1][0] b20000+35[1][1][1][0] b35[1][1][1][1] am2 a54"/>
    </vehicle>
    <vehicle id="60" depart="780.51">
        <route edges="a78[0] a56a a56b a77bc a77cd a53cd a53[0] a53[1][0] a79 a68 a11 b38[0] b38[0]a b38[1][0] b38[1][1] b38[1][1]a b56[1][0] b56[1][1] b5[1][0]+66 b5[1][1][1] b16[0]"/>
    </vehicle>
    <vehicle id="61" depart="801.28">
        <route edges="a78[0] a56a a56b a77bc a77cd a53cd a53[0] a53[1][0] a79 a68 a11 b38[0] b38[0]a b38[1][0] b38[1][1] b38[1][1]a b56[1][0] b56[1][1] b5[1][0]+66 b5[1][1][1] b16[0]"/>
    </vehicle>
    <vehicle id="62" depart="825.82">
        <route edges="a55 a55b a125 b12 b50[0] b50[1] b49[1] b55 b35[1][1][0] b20000+35[1][1][1][0] b35[1][1][1][1] am2 a54"/>
    </vehicle>
    <vehicle id="63" depart="839.62">
        <route edges="a203[1] a203[1]b a202 a34 a134 a134b a133 a31 a115 a110 a185 a92 a90 am91 a88 a187 a191 a17 a71 b2[0] b2[1][0] b2[1][1][0] b21"/>
    </vehicle>
    <vehicle id="64" depart="852.07">
        <route edges="a78[0] a56a a56b a77bc a77cd a53cd a53[0] a53[1][0] a79 a68 a11 b38[0] b38[0]a b38[1][0] b38[1][1] b38[1][1]a b56[1][0] b56[1][1] b5[1][0]+66 b5[1][1][1] b16[0]"/>
    </vehicle>
    <vehicle id="65" depart="855.02">
        <route edges="a55 a55b a125 b12 b50[0] b50[1] b49[1] b55 b35[1][1][0] b20000+35[1][1][1][0] b35[1][1][1][1] am2 a54"/>
    </vehicle>
    <vehicle id="66" depart="857.65">
        <route edges="a78[0] a56a a56b a77bc a77cd a53cd a53[0] a53[1][0] a79 a68 a11 b38[0] b38[0]a b38[1][0] b38[1][1] b38[1][1]a b56[1][0] b56[1][1] b5[1][0]+66 b5[1][1][1] b16[0]"/>
    </vehicle>
    <vehicle id="67" depart="858.95">
        <route edges="a78[0] a56a a56b a77bc a77cd a53cd a53[0] a53[1][0] a79 a68 a11 b2[0] b2[1][0] b24 b23 b17[0]"/>
    </vehicle>
    <vehicle id="68" depart="863.23">
        <route edges="a78[0] a56a a56b a77bc a77cd a53cd a53[0] a53[1][0] a79 a68 a11 b38[0] b38[0]a b38[1][0] b38[1][1] b38[1][1]a b56[1][0] b56[1][1] b5[1][0]+66 b5[1][1][1] b16[0]"/>
    </vehicle>
    <vehicle id="69" depart="867.91">
        <route edges="a55 a55b a125 b12 b50[0] b50[1] b49[1] b55 b35[1][1][0] b20000+35[1][1][1][0] b35[1][1][1][1] am2 a54"/>
    </vehicle>
    <vehicle id="70" depart="895.41">
        <route edges="a55 a55b a125 b12 b50[0] b50[1] b49[1] b55 b35[1][1][0] b20000+35[1][1][1][0] b35[1][1][1][1] am2 a54"/>
    </vehicle>
    <vehicle id="71" depart="900.06">
        <route edges="a78[0] a56a a56b a77bc a77cd a53cd a53[0] a53[1][0] a79 a68 a11 b38[0] b38[0]a b38[1][0] b38[1][1] b38[1][1]a b56[1][0] b56[1][1] b5[1][0]+66 b5[1][1][1] b16[0]"/>
    </vehicle>
    <vehicle id="72" depart="900.90">
        <route edges="a55 a55b a125 b12 b50[0] b50[1] b49[1] b55 b35[1][1][0] b20000+35[1][1][1][0] b35[1][1][1][1] am2 a54"/>
    </vehicle>
    <vehicle id="73" depart="903.10">
        <route edges="a78[0] a56a a56b a77bc a77cd a53cd a53[0] a53[1][0] a79 a68 a11 b38[0] b38[0]a b38[1][0] b38[1][1] b38[1][1]a b56[1][0] b56[1][1] b5[1][0]+66 b5[1][1][1] b16[0]"/>
    </vehicle>
    <vehicle id="74" depart="905.19">
        <route edges="a203[1] a203[1]b a202 a34 a134 a134b a133 a31 a115 a110 a185 a92 a90 am91 a88 a187 a191 a17 a71 b2[0] b2[1][0] b2[1][1][0] b21"/>
    </vehicle>
    <vehicle id="75" depart="910.76">
        <route edges="a78[0] a56a a56b a77bc a77cd a53cd a53[0] a53[1][0] a79 a68 a11 b38[0] b38[0]a b38[1][0] b38[1][1] b38[1][1]a b56[1][0] b56[1][1] b5[1][0]+66 b5[1][1][1] b16[0]"/>
    </vehicle>
    <vehicle id="76" depart="913.26">
        <route edges="a55 a55b a125 b12 b50[0] b50[1] b49[1] b55 b35[1][1][0] b20000+35[1][1][1][0] b35[1][1][1][1] am2 a54"/>
    </vehicle>
    <vehicle id="77" depart="935.82">
        <route edges="a55 a55b a125 b12 b50[0] b50[1] b49[1] b55 b35[1][1][0] b20000+35[1][1][1][0] b35[1][1][1][1] am2 a54"/>
    </vehicle>
    <vehicle id="78" depart="938.50">
        <route edges="a55 a55b a125 b12 b50[0] b50[1] b49[1] b55 b35[1][1][0] b20000+35[1][1][1][0] b35[1][1][1][1] am2 a54"/>
    </vehicle>
    <vehicle id="79" depart="939.22">
        <route edges="a203[1] a203[1]b a202 a34 a134 a134b a133 a31 a115 a110 a185 a92 a90 am91 a88 a187 a191 a17 a71 b2[0] b2[1][0] b2[1][1][0] b21"/>
    </vehicle>
    <vehicle id="80" depart="957.38">
        <route edges="a55 a55b a125 b12 b50[0] b50[1] b49[1] b55 b35[1][1][0] b20000+35[1][1][1][0] b35[1][1][1][1] am2 a54"/>
    </vehicle>
    <vehicle id="81" depart="967.22">
        <route edges="a78[0] a56a a56b a77bc a77cd a53cd a53[0] a53[1][0] a79 a68 a11 b38[0] b38[0]a b38[1][0] b38[1][1] b38[1][1]a b56[1][0] b56[1][1] b5[1][0]+66 b5[1][1][1] b16[0]"/>
    </vehicle>
    <vehicle id="82" depart="975.45">
        <route edges="a203[1] a203[1]b a202 a34 a134 a134b a133 a31 a115 a110 a185 a92 a90 am91 a88 a187 a191 a17 a71 b2[0] b2[1][0] b2[1][1][0] b21"/>
    </vehicle>
    <vehicle id="83" depart="977.55">
        <route edges="a55 a55b a125 b12 b50[0] b50[1] b49[1] b55 b35[1][1][0] b20000+35[1][1][1][0] b35[1][1][1][1] am2 a54"/>
    </vehicle>
    <vehicle id="84" depart="986.26">
        <route edges="a55 a55b a125 b12 b50[0] b50[1] b49[1] b55 b35[1][1][0] b20000+35[1][1][1][0] b35[1][1][1][1] am2 a54"/>
    </vehicle>
    <vehicle id="85" depart="989.03">
        <route edges="a203[1] a203[1]b a202 a34 a134 a134b a133 a31 a115 a110 a185 a92 a90 am91 a88 a187 a191 a17 a71 b2[0] b2[1][0] b2[1][1][0] b21"/>
    </vehicle>
    <vehicle id="86" depart="1007.15">
        <route edges="a203[1] a203[1]b a202 a34 a134 a134b a133 a31 a115 a110 a185 a92 a90 am91 a88 a187 a191 a17 a71 b2[0] b2[1][0] b2[1][1][0] b21"/>
    </vehicle>
    <vehicle id="87" depart="1060.18">
        <route edges="a78[0] a56a a56b a77bc a77cd a53cd a53[0] a53[1][0] a79 a68 a11 b38[0] b38[0]a b38[1][0] b38[1][1] b38[1][1]a b56[1][0] b56[1][1] b5[1][0]+66 b5[1][1][1] b16[0]"/>
    </vehicle>
    <vehicle id="88" depart="1071.49">
        <route edges="a78[0] a56a a56b a77bc a77cd a53cd a53[0] a53[1][0] a79 a68 a11 b2[0] b2[1][0] b24 b23 b17[0]"/>
    </vehicle>
    <vehicle id="89" depart="1091.76">
        <route edges="a55 a55b a125 b12 b50[0] b50[1] b49[1] b55 b35[1][1][0] b20000+35[1][1][1][0] b35[1][1][1][1] am2 a54"/>
    </vehicle>
    <vehicle id="90" depart="1108.00">
        <route edges="a78[0] a56a a56b a77bc a77cd a53cd a53[0] a53[1][0] a79 a68 a11 b38[0] b38[0]a b38[1][0] b38[1][1] b38[1][1]a b56[1][0] b56[1][1] b5[1][0]+66 b5[1][1][1] b16[0]"/>
    </vehicle>
    <vehicle id="91" depart="1121.09">
        <route edges="a55 a55b a125 b12 b50[0] b50[1] b49[1] b55 b35[1][1][0] b20000+35[1][1][1][0] b35[1][1][1][1] am2 a54"/>
    </vehicle>
    <vehicle id="92" depart="1161.67">
        <route edges="a78[0] a56a a56b a77bc a77cd a53cd a53[0] a53[1][0] a79 a68 a11 b2[0] b2[1][0] b24 b23 b17[0]"/>
    </vehicle>
    <vehicle id="93" depart="1175.94">
        <route edges="a78[0] a56a a56b a77bc a77cd a53cd a53[0] a53[1][0] a79 a68 a11 b38[0] b38[0]a b38[1][0] b38[1][1] b38[1][1]a b56[1][0] b56[1][1] b5[1][0]+66 b5[1][1][1] b16[0]"/>
    </vehicle>
    <vehicle id="94" depart="1181.35">
        <route edges="a78[0] a56a a56b a77bc a77cd a53cd a53[0] a53[1][0] a79 a68 a11 b2[0] b2[1][0] b24 b23 b17[0]"/>
    </vehicle>
    <vehicle id="95" depart="1188.91">
        <route edges="a78[0] a56a a56b a77bc a77cd a53cd a53[0] a53[1][0] a79 a68 a11 b38[0] b38[0]a b38[1][0] b38[1][1] b38[1][1]a b56[1][0] b56[1][1] b5[1][0]+66 b5[1][1][1] b16[0]"/>
    </vehicle>
    <vehicle id="96" depart="1208.38">
        <route edges="a78[0] a56a a56b a77bc a77cd a53cd a53[0] a53[1][0] a79 a68 a11 b2[0] b2[1][0] b24 b23 b17[0]"/>
    </vehicle>
    <vehicle id="97" depart="1211.60">
        <route edges="a203[1] a203[1]b a202 a34 a134 a134b a133 a31 a115 a110 a185 a92 a90 am91 a88 a187 a191 a17 a71 b2[0] b2[1][0] b2[1][1][0] b21"/>
    </vehicle>
    <vehicle id="98" depart="1226.25">
        <route edges="a78[0] a56a a56b a77bc a77cd a53cd a53[0] a53[1][0] a79 a68 a11 b2[0] b2[1][0] b24 b23 b17[0]"/>
    </vehicle>
    <vehicle id="99" depart="1230.77">
        <route edges="a203[1] a203[1]b a202 a34 a134 a134b a133 a31 a115 a110 a185 a92 a90 am91 a88 a187 a191 a17 a71 b2[0] b2[1][0] b2[1][1][0] b21"/>
    </vehicle>
    <vehicle id="100" depart="1246.70">
        <route edges="a78[0] a56a a56b a77bc a77cd a53cd a53[0] a53[1][0] a79 a68 a11 b38[0] b38[0]a b38[1][0] b38[1][1] b38[1][1]a b56[1][0] b56[1][1] b5[1][0]+66 b5[1][1][1] b16[0]"/>
    </vehicle>
    <vehicle id="101" depart="1254.01">
        <route edges="a55 a55b a125 b12 b50[0] b50[1] b49[1] b55 b35[1][1][0] b20000+35[1][1][1][0] b35[1][1][1][1] am2 a54"/>
    </vehicle>
    <vehicle id="102" depart="1260.79">
        <route edges="a78[0] a56a a56b a77bc a77cd a53cd a53[0] a53[1][0] a79 a68 a11 b2[0] b2[1][0] b24 b23 b17[0]"/>
    </vehicle>
    <vehicle id="103" depart="1277.66">
        <route edges="a78[0] a56a a56b a77bc a77cd a53cd a53[0] a53[1][0] a79 a68 a11 b38[0] b38[0]a b38[1][0] b38[1][1] b38[1][1]a b56[1][0] b56[1][1] b5[1][0]+66 b5[1][1][1] b16[0]"/>
    </vehicle>
    <vehicle id="104" depart="1297.24">
        <route edges="a78[0] a56a a56b a77bc a77cd a53cd a53[0] a53[1][0] a79 a68 a11 b2[0] b2[1][0] b24 b23 b17[0]"/>
    </vehicle>
    <vehicle id="105" depart="1356.26">
        <route edges="a78[0] a56a a56b a77bc a77cd a53cd a53[0] a53[1][0] a79 a68 a11 b2[0] b2[1][0] b24 b23 b17[0]"/>
    </vehicle>
    <vehicle id="106" depart="1358.13">
        <route edges="a78[0] a56a a56b a77bc a77cd a53cd a53[0] a53[1][0] a79 a68 a11 b38[0] b38[0]a b38[1][0] b38[1][1] b38[1][1]a b56[1][0] b56[1][1] b5[1][0]+66 b5[1][1][1] b16[0]"/>
    </vehicle>
    <vehicle id="107" depart="1359.82">
        <route edges="a55 a55b a125 b12 b50[0] b50[1] b49[1] b55 b35[1][1][0] b20000+35[1][1][1][0] b35[1][1][1][1] am2 a54"/>
    </vehicle>
    <vehicle id="108" depart="1360.26">
        <route edges="a78[0] a56a a56b a77bc a77cd a53cd a53[0] a53[1][0] a79 a68 a11 b38[0] b38[0]a b38[1][0] b38[1][1] b38[1][1]a b56[1][0] b56[1][1] b5[1][0]+66 b5[1][1][1] b16[0]"/>
    </vehicle>
    <vehicle id="109" depart="1360.76">
        <route edges="a78[0] a56a a56b a77bc a77cd a53cd a53[0] a53[1][0] a79 a68 a11 b38[0] b38[0]a b38[1][0] b38[1][1] b38[1][1]a b56[1][0] b56[1][1] b5[1][0]+66 b5[1][1][1] b16[0]"/>
    </vehicle>
    <vehicle id="110" depart="1383.13">
        <route edges="a78[0] a56a a56b a77bc a77cd a53cd a53[0] a53[1][0] a79 a68 a11 b38[0] b38[0]a b38[1][0] b38[1][1] b38[1][1]a b56[1][0] b56[1][1] b5[1][0]+66 b5[1][1][1] b16[0]"/>
    </vehicle>
    <vehicle id="111" depart="1387.43">
        <route edges="a78[0] a56a a56b a77bc a77cd a53cd a53[0] a53[1][0] a79 a68 a11 b38[0] b38[0]a b38[1][0] b38[1][1] b38[1][1]a b56[1][0] b56[1][1] b5[1][0]+66 b5[1][1][1] b16[0]"/>
    </vehicle>
    <vehicle id="112" depart="1397.77">
        <route edges="a78[0] a56a a56b a77bc a77cd a53cd a53[0] a53[1][0] a79 a68 a11 b2[0] b2[1][0] b24 b23 b17[0]"/>
    </vehicle>
    <vehicle id="113" depart="1402.63">
        <route edges="a203[1] a203[1]b a202 a34 a134 a134b a133 a31 a115 a110 a185 a92 a90 am91 a88 a187 a191 a17 a71 b2[0] b2[1][0] b2[1][1][0] b21"/>
    </vehicle>
    <vehicle id="114" depart="1414.76">
        <route edges="a78[0] a56a a56b a77bc a77cd a53cd a53[0] a53[1][0] a79 a68 a11 b2[0] b2[1][0] b24 b23 b17[0]"/>
    </vehicle>
    <vehicle id="115" depart="1420.28">
        <route edges="a55 a55b a125 b12 b50[0] b50[1] b49[1] b55 b35[1][1][0] b20000+35[1][1][1][0] b35[1][1][1][1] am2 a54"/>
    </vehicle>
    <vehicle id="116" depart="1427.95">
        <route edges="a78[0] a56a a56b a77bc a77cd a53cd a53[0] a53[1][0] a79 a68 a11 b38[0] b38[0]a b38[1][0] b38[1][1] b38[1][1]a b56[1][0] b56[1][1] b5[1][0]+66 b5[1][1][1] b16[0]"/>
    </vehicle>
    <vehicle id="117" depart="1428.42">
        <route edges="a203[1] a203[1]b a202 a34 a134 a134b a133 a31 a115 a110 a185 a92 a90 am91 a88 a187 a191 a17 a71 b2[0] b2[1][0] b2[1][1][0] b21"/>
    </vehicle>
    <vehicle id="118" depart="1435.76">
        <route edges="a78[0] a56a a56b a77bc a77cd a53cd a53[0] a53[1][0] a79 a68 a11 b38[0] b38[0]a b38[1][0] b38[1][1] b38[1][1]a b56[1][0] b56[1][1] b5[1][0]+66 b5[1][1][1] b16[0]"/>
    </vehicle>
    <vehicle id="119" depart="1440.80">
        <route edges="a55 a55b a125 b12 b50[0] b50[1] b49[1] b55 b35[1][1][0] b20000+35[1][1][1][0] b35[1][1][1][1] am2 a54"/>
    </vehicle>
    <vehicle id="120" depart="1458.73">
        <route edges="a78[0] a56a a56b a77bc a77cd a53cd a53[0] a53[1][0] a79 a68 a11 b38[0] b38[0]a b38[1][0] b38[1][1] b38[1][1]a b56[1][0] b56[1][1] b5[1][0]+66 b5[1][1][1] b16[0]"/>
    </vehicle>
    <vehicle id="121" depart="1480.34">
        <route edges="a78[0] a56a a56b a77bc a77cd a53cd a53[0] a53[1][0] a79 a68 a11 b2[0] b2[1][0] b24 b23 b17[0]"/>
    </vehicle>
    <vehicle id="122" depart="1480.52">
        <route edges="a203[1] a203[1]b a202 a34 a134 a134b a133 a31 a115 a110 a185 a92 a90 am91 a88 a187 a191 a17 a71 b2[0] b2[1][0] b2[1][1][0] b21"/>
    </vehicle>
    <vehicle id="123" depart="1480.87">
        <route edges="a203[1] a203[1]b a202 a34 a134 a134b a133 a31 a115 a110 a185 a92 a90 am91 a88 a187 a191 a17 a71 b2[0] b2[1][0] b2[1][1][0] b21"/>
    </vehicle>
    <vehicle id="124" depart="1499.90">
        <route edges="a78[0] a56a a56b a77bc a77cd a53cd a53[0] a53[1][0] a79 a68 a11 b2[0] b2[1][0] b24 b23 b17[0]"/>
    </vehicle>
    <vehicle id="125" depart="1504.61">
        <route edges="a78[0] a56a a56b a77bc a77cd a53cd a53[0] a53[1][0] a79 a68 a11 b2[0] b2[1][0] b24 b23 b17[0]"/>
    </vehicle>
    <vehicle id="126" depart="1513.93">
        <route edges="a78[0] a56a a56b a77bc a77cd a53cd a53[0] a53[1][0] a79 a68 a11 b2[0] b2[1][0] b24 b23 b17[0]"/>
    </vehicle>
    <vehicle id="127" depart="1524.50">
        <route edges="a78[0] a56a a56b a77bc a77cd a53cd a53[0] a53[1][0] a79 a68 a11 b38[0] b38[0]a b38[1][0] b38[1][1] b38[1][1]a b56[1][0] b56[1][1] b5[1][0]+66 b5[1][1][1] b16[0]"/>
    </vehicle>
    <vehicle id="128" depart="1533.93">
        <route edges="a78[0] a56a a56b a77bc a77cd a53cd a53[0] a53[1][0] a79 a68 a11 b2[0] b2[1][0] b24 b23 b17[0]"/>
    </vehicle>
    <vehicle id="129" depart="1541.93">
        <route edges="a78[0] a56a a56b a77bc a77cd a53cd a53[0] a53[1][0] a79 a68 a11 b2[0] b2[1][0] b24 b23 b17[0]"/>
    </vehicle>
    <vehicle id="130" depart="1560.67">
        <route edges="a78[0] a56a a56b a77bc a77cd a53cd a53[0] a53[1][0] a79 a68 a11 b2[0] b2[1][0] b24 b23 b17[0]"/>
    </vehicle>
    <vehicle id="131" depart="1564.03">
        <route edges="a55 a55b a125 b12 b50[0] b50[1] b49[1] b55 b35[1][1][0] b20000+35[1][1][1][0] b35[1][1][1][1] am2 a54"/>
    </vehicle>
    <vehicle id="132" depart="1568.42">
        <route edges="a55 a55b a125 b12 b50[0] b50[1] b49[1] b55 b35[1][1][0] b20000+35[1][1][1][0] b35[1][1][1][1] am2 a54"/>
    </vehicle>
    <vehicle id="133" depart="1570.81">
        <route edges="a78[0] a56a a56b a77bc a77cd a53cd a53[0] a53[1][0] a79 a68 a11 b2[0] b2[1][0] b24 b23 b17[0]"/>
    </vehicle>
    <vehicle id="134" depart="1578.51">
        <route edges="a203[1] a203[1]b a202 a34 a134 a134b a133 a31 a115 a110 a185 a92 a90 am91 a88 a187 a191 a17 a71 b2[0] b2[1][0] b2[1][1][0] b21"/>
    </vehicle>
    <vehicle id="135" depart="1592.47">
        <route edges="a78[0] a56a a56b a77bc a77cd a53cd a53[0] a53[1][0] a79 a68 a11 b38[0] b38[0]a b38[1][0] b38[1][1] b38[1][1]a b56[1][0] b56[1][1] b5[1][0]+66 b5[1][1][1] b16[0]"/>
    </vehicle>
    <vehicle id="136" depart="1631.67">
        <route edges="a78[0] a56a a56b a77bc a77cd a53cd a53[0] a53[1][0] a79 a68 a11 b38[0] b38[0]a b38[1][0] b38[1][1] b38[1][1]a b56[1][0] b56[1][1] b5[1][0]+66 b5[1][1][1] b16[0]"/>
    </vehicle>
    <vehicle id="137" depart="1646.15">
        <route edges="a203[1] a203[1]b a202 a34 a134 a134b a133 a31 a115 a110 a185 a92 a90 am91 a88 a187 a191 a17 a71 b2[0] b2[1][0] b2[1][1][0] b21"/>
    </vehicle>
    <vehicle id="138" depart="1672.83">
        <route edges="a78[0] a56a a56b a77bc a77cd a53cd a53[0] a53[1][0] a79 a68 a11 b2[0] b2[1][0] b24 b23 b17[0]"/>
    </vehicle>
    <vehicle id="139" depart="1714.36">
        <route edges="a55 a55b a125 b12 b50[0] b50[1] b49[1] b55 b35[1][1][0] b20000+35[1][1][1][0] b35[1][1][1][1] am2 a54"/>
    </vehicle>
    <vehicle id="140" depart="1719.77">
        <route edges="a55 a55b a125 b12 b50[0] b50[1] b49[1] b55 b35[1][1][0] b20000+35[1][1][1][0] b35[1][1][1][1] am2 a54"/>
    </vehicle>
    <vehicle id="141" depart="1728.17">
        <route edges="a78[0] a56a a56b a77bc a77cd a53cd a53[0] a53[1][0] a79 a68 a11 b2[0] b2[1][0] b24 b23 b17[0]"/>
    </vehicle>
    <vehicle id="142" depart="1729.33">
        <route edges="a78[0] a56a a56b a77bc a77cd a53cd a53[0] a53[1][0] a79 a68 a11 b38[0] b38[0]a b38[1][0] b38[1][1] b38[1][1]a b56[1][0] b56[1][1] b5[1][0]+66 b5[1][1][1] b16[0]"/>
    </vehicle>
    <vehicle id="143" depart="1734.00">
        <route edges="a78[0] a56a a56b a77bc a77cd a53cd a53[0] a53[1][0] a79 a68 a11 b38[0] b38[0]a b38[1][0] b38[1][1] b38[1][1]a b56[1][0] b56[1][1] b5[1][0]+66 b5[1][1][1] b16[0]"/>
    </vehicle>
    <vehicle id="144" depart="1737.08">