<?xml version="1.0" encoding="UTF-8"?>

<!-- generated on 2024-05-16 10:26:27 by Eclipse SUMO netconvert Version 1.19.0
<configuration xmlns:xsi="http://www.w3.org/2001/XMLSchema-instance" xsi:noNamespaceSchemaLocation="http://sumo.dlr.de/xsd/netconvertConfiguration.xsd">

    <input>
        <sumo-net-file value="joined_buslanes.net.xml"/>
    </input>

    <output>
        <output-file value="joined_buslanes_fixed.net.xml"/>
    </output>

    <processing>
        <geometry.remove value="true"/>
        <geometry.min-radius.fix.railways value="false"/>
        <geometry.max-grade.fix value="false"/>
        <offset.disable-normalization value="true"/>
        <lefthand value="0"/>
    </processing>

    <tls_building>
        <tls.ignore-internal-junction-jam value="1"/>
    </tls_building>

    <ramp_guessing>
        <ramps.guess value="true"/>
    </ramp_guessing>

    <edge_removal>
        <remove-edges.isolated value="true"/>
    </edge_removal>

    <junctions>
        <no-turnarounds value="true"/>
        <junctions.join value="true"/>
        <junctions.join-dist value="12"/>
        <junctions.corner-detail value="5"/>
        <junctions.limit-turn-speed value="5.50"/>
        <rectangular-lane-cut value="0"/>
        <check-lane-foes.all value="1"/>
    </junctions>

    <pedestrian>
        <sidewalks.guess value="true"/>
        <crossings.guess value="true"/>
        <walkingareas value="0"/>
    </pedestrian>

    <report>
        <verbose value="true"/>
    </report>

</configuration>
-->

<net version="1.16" junctionCornerDetail="5" walkingareas="true" limitTurnSpeed="5.50" checkLaneFoesAll="1" tlsIgnoreInternalJunctionJam="1" xmlns:xsi="http://www.w3.org/2001/XMLSchema-instance" xsi:noNamespaceSchemaLocation="http://sumo.dlr.de/xsd/net_file.xsd">

    <location netOffset="-683195.58,-4928877.56" convBoundary="0.00,0.00,2164.41,1916.16" origBoundary="-346.830000,0.000000,1817.580000,2148.550000" projParameter="+proj=utm +zone=32 +ellps=WGS84 +datum=WGS84 +units=m +no_defs"/>

    <edge id=":a0_0" function="internal">
        <lane id=":a0_0_0" index="0" disallow="pedestrian" speed="13.89" length="24.51" shape="1753.31,813.07 1761.69,812.78 1767.46,812.67 1773.17,813.11 1777.73,813.88"/>
        <lane id=":a0_0_1" index="1" disallow="pedestrian" speed="13.89" length="24.38" shape="1753.39,816.27 1761.90,816.00 1767.74,815.93 1773.55,816.42 1777.68,817.13"/>
    </edge>
    <edge id=":a0_2" function="internal">
        <lane id=":a0_2_0" index="0" disallow="pedestrian" speed="13.89" length="31.29" shape="1753.39,816.27 1762.77,816.72 1769.16,818.38 1775.30,820.89 1783.94,823.89"/>
        <lane id=":a0_2_1" index="1" disallow="pedestrian" speed="13.89" length="31.29" shape="1753.46,819.47 1762.50,819.91 1768.58,821.53 1774.50,823.99 1783.06,826.96"/>
    </edge>
    <edge id=":a0_4" function="internal">
        <lane id=":a0_4_0" index="0" disallow="pedestrian" speed="13.89" length="3.74" shape="1777.73,813.88 1781.42,814.50"/>
    </edge>
    <edge id=":a0_5" function="internal">
        <lane id=":a0_5_0" index="0" disallow="pedestrian" speed="13.89" length="4.30" shape="1777.68,817.13 1781.92,817.85"/>
    </edge>
    <edge id=":a0_c0" function="crossing" crossingEdges="a3">
        <lane id=":a0_c0_0" index="0" allow="pedestrian" speed="2.78" length="6.50" width="4.00" shape="1779.75,812.55 1779.65,819.04"/>
    </edge>
    <edge id=":a0_w0" function="walkingarea">
        <lane id=":a0_w0_0" index="0" allow="pedestrian" speed="2.78" length="5.53" width="4.00" shape="1784.38,822.35 1784.94,820.43 1781.65,819.08 1781.27,819.52 1781.46,819.98 1782.02,820.65 1782.80,821.37 1783.64,821.98"/>
    </edge>
    <edge id=":a0_w1" function="walkingarea">
        <lane id=":a0_w1_0" index="0" allow="pedestrian" speed="2.78" length="18.62" width="4.00" shape="1781.75,812.58 1780.82,812.75 1781.20,810.79 1753.22,809.47 1753.27,811.47 1759.35,811.28 1763.87,811.11 1767.59,811.07 1771.29,811.28 1775.74,811.86"/>
    </edge>
    <edge id=":a1_0" function="internal">
        <lane id=":a1_0_0" index="0" disallow="pedestrian" speed="13.89" length="23.72" shape="1853.29,830.65 1847.85,853.66"/>
        <lane id=":a1_0_1" index="1" disallow="pedestrian" speed="13.89" length="23.72" shape="1850.19,829.84 1844.74,852.93"/>
        <lane id=":a1_0_2" index="2" disallow="pedestrian" speed="13.89" length="23.72" shape="1847.09,829.04 1841.62,852.21"/>
    </edge>
    <edge id=":a1_3" function="internal">
        <lane id=":a1_3_0" index="0" disallow="pedestrian" speed="9.01" length="15.86" shape="1838.58,842.40 1843.22,844.83 1846.31,847.51 1847.86,850.46 1847.85,853.66"/>
        <lane id=":a1_3_1" index="1" disallow="pedestrian" speed="7.71" length="11.39" shape="1837.33,845.35 1840.93,847.15 1843.36,849.01 1844.63,850.94 1844.74,852.93"/>
    </edge>
    <edge id=":a1_c0" function="crossing" crossingEdges="a201c">
        <lane id=":a1_c0_0" index="0" allow="pedestrian" speed="2.78" length="9.60" width="4.00" shape="1845.04,830.58 1854.33,832.99"/>
    </edge>
    <edge id=":a1_w0" function="walkingarea">
        <lane id=":a1_w0_0" index="0" allow="pedestrian" speed="2.78" length="15.81" width="4.00" shape="1849.41,854.02 1851.36,854.48 1856.77,831.55 1854.84,831.05 1853.83,834.92"/>
    </edge>
    <edge id=":a1_w1" function="walkingarea">
        <lane id=":a1_w1_0" index="0" allow="pedestrian" speed="2.78" length="10.89" width="4.00" shape="1845.54,828.64 1839.99,839.09 1839.21,840.93 1840.17,840.92 1841.17,840.10 1842.21,838.46 1843.28,836.00 1844.40,832.73"/>
    </edge>
    <edge id=":a11_0" function="internal">
        <lane id=":a11_0_0" index="0" disallow="pedestrian" speed="13.89" length="17.37" shape="647.33,164.13 649.48,168.80 651.29,171.83 653.11,174.87 655.31,179.51"/>
        <lane id=":a11_0_1" index="1" disallow="pedestrian" speed="13.89" length="17.37" shape="647.33,164.13 649.02,168.99 649.81,172.45 650.62,175.90 652.35,180.75"/>
    </edge>
    <edge id=":a11_w0" function="walkingarea">
        <lane id=":a11_w0_0" index="0" allow="pedestrian" speed="2.78" length="17.30" width="2.00" shape="656.78,178.90 658.63,178.13 650.67,162.78 648.81,163.53 650.30,166.90 651.58,169.30 652.77,171.23 653.96,173.15 655.26,175.54"/>
    </edge>
    <edge id=":a12_0" function="internal">
        <lane id=":a12_0_0" index="0" disallow="pedestrian" speed="10.45" length="13.32" shape="670.43,239.73 668.11,235.71 665.10,232.84 661.38,231.13 660.96,231.07"/>
    </edge>
    <edge id=":a12_1" function="internal">
        <lane id=":a12_1_0" index="0" disallow="pedestrian" speed="13.89" length="23.67" shape="670.43,239.73 667.91,232.92 666.60,227.84 665.43,223.07 663.33,217.19"/>
    </edge>
    <edge id=":a12_2" function="internal">
        <lane id=":a12_2_0" index="0" disallow="pedestrian" speed="7.80" length="5.10" shape="673.37,238.48 672.00,233.57"/>
    </edge>
    <edge id=":a12_9" function="internal">
        <lane id=":a12_9_0" index="0" disallow="pedestrian" speed="10.45" length="4.03" shape="660.96,231.07 656.96,230.57"/>
    </edge>
    <edge id=":a12_10" function="internal">
        <lane id=":a12_10_0" index="0" disallow="pedestrian" speed="7.80" length="13.89" shape="672.00,233.57 671.84,232.96 672.72,229.30 676.03,227.48 681.75,227.51"/>
    </edge>
    <edge id=":a12_3" function="internal">
        <lane id=":a12_3_0" index="0" disallow="pedestrian" speed="6.17" length="7.15" shape="681.31,230.68 677.90,230.66 675.93,231.74 675.58,233.19"/>
    </edge>
    <edge id=":a12_4" function="internal">
        <lane id=":a12_4_0" index="0" disallow="pedestrian" speed="13.89" length="24.39" shape="681.31,230.68 674.74,230.08 669.17,230.10 663.59,230.38 656.96,230.57"/>
    </edge>
    <edge id=":a12_5" function="internal">
        <lane id=":a12_5_0" index="0" disallow="pedestrian" speed="13.12" length="19.54" shape="681.31,230.68 675.30,229.16 670.30,226.41 666.31,222.42 665.32,220.69"/>
    </edge>
    <edge id=":a12_11" function="internal">
        <lane id=":a12_11_0" index="0" disallow="pedestrian" speed="6.17" length="4.18" shape="675.58,233.19 675.40,233.93 676.32,237.22"/>
    </edge>
    <edge id=":a12_12" function="internal">
        <lane id=":a12_12_0" index="0" disallow="pedestrian" speed="13.12" length="4.03" shape="665.32,220.69 663.33,217.19"/>
    </edge>
    <edge id=":a12_6" function="internal">
        <lane id=":a12_6_0" index="0" disallow="pedestrian" speed="11.60" length="14.21" shape="669.87,214.43 672.51,219.80 675.37,223.77 677.93,225.90"/>
    </edge>
    <edge id=":a12_7" function="internal">
        <lane id=":a12_7_0" index="0" disallow="pedestrian" speed="13.89" length="23.51" shape="666.92,215.67 676.32,237.22"/>
    </edge>
    <edge id=":a12_8" function="internal">
        <lane id=":a12_8_0" index="0" disallow="pedestrian" speed="8.88" length="8.27" shape="666.92,215.67 668.62,222.16 668.26,223.68"/>
    </edge>
    <edge id=":a12_13" function="internal">
        <lane id=":a12_13_0" index="0" disallow="pedestrian" speed="11.60" length="4.18" shape="677.93,225.90 678.45,226.34 681.75,227.51"/>
    </edge>
    <edge id=":a12_14" function="internal">
        <lane id=":a12_14_0" index="0" disallow="pedestrian" speed="8.88" length="14.75" shape="668.26,223.68 667.53,226.81 663.64,229.61 656.96,230.57"/>
    </edge>
    <edge id=":a12_c0" function="crossing" crossingEdges="a24 a103">
        <lane id=":a12_c0_0" index="0" allow="pedestrian" speed="2.78" length="9.60" width="4.00" shape="677.00,234.76 668.17,238.52"/>
    </edge>
    <edge id=":a12_c1" function="crossing" crossingEdges="a16 a15">
        <lane id=":a12_c1_0" index="0" allow="pedestrian" speed="2.78" length="6.40" width="4.00" shape="679.99,225.65 679.12,231.99"/>
    </edge>
    <edge id=":a12_c2" function="crossing" crossingEdges="a14 a104">
        <lane id=":a12_c2_0" index="0" allow="pedestrian" speed="2.78" length="10.29" width="4.00" shape="662.63,219.66 672.12,215.66"/>
    </edge>
    <edge id=":a12_c3" function="crossing" crossingEdges="a49">
        <lane id=":a12_c3_0" index="0" allow="pedestrian" speed="2.78" length="3.20" width="4.00" shape="658.97,232.16 658.95,228.96"/>
    </edge>
    <edge id=":a12_w0" function="walkingarea">
        <lane id=":a12_w0_0" index="0" allow="pedestrian" speed="2.78" length="9.00" width="4.00" shape="656.97,232.17 656.98,234.17 667.12,241.15 668.96,240.36 667.65,237.85 666.07,235.79 664.20,234.20 662.07,233.06 659.66,232.39"/>
    </edge>
    <edge id=":a12_w1" function="walkingarea">
        <lane id=":a12_w1_0" index="0" allow="pedestrian" speed="2.78" length="3.36" width="4.00" shape="677.79,236.60 679.63,235.81 680.82,234.24 681.10,232.26 679.48,232.17 678.29,232.41 677.53,232.97 677.19,233.85 677.28,235.06"/>
    </edge>
    <edge id=":a12_w2" function="walkingarea">
        <lane id=":a12_w2_0" index="0" allow="pedestrian" speed="2.78" length="10.07" width="4.00" shape="681.97,225.92 682.24,223.94 673.19,213.03 671.34,213.80 672.95,217.28 674.62,220.18 676.36,222.49 678.16,224.22 680.03,225.36"/>
    </edge>
    <edge id=":a12_w3" function="walkingarea">
        <lane id=":a12_w3_0" index="0" allow="pedestrian" speed="2.78" length="7.73" width="4.00" shape="661.86,217.81 660.01,218.59 656.95,228.97 659.76,228.65 661.76,227.71 662.98,226.16 663.40,223.99 663.02,221.21"/>
    </edge>
    <edge id=":a13_0" function="internal">
        <lane id=":a13_0_0" index="0" disallow="pedestrian" speed="6.21" length="6.26" shape="785.48,244.94 782.41,244.97 780.48,246.00 780.12,246.94"/>
    </edge>
    <edge id=":a13_1" function="internal">
        <lane id=":a13_1_0" index="0" disallow="pedestrian" speed="13.89" length="16.36" shape="785.48,244.94 769.26,242.77"/>
    </edge>
    <edge id=":a13_2" function="internal">
        <lane id=":a13_2_0" index="0" disallow="pedestrian" speed="10.35" length="3.52" shape="785.48,244.94 782.13,243.86"/>
    </edge>
    <edge id=":a13_4" function="internal">
        <lane id=":a13_4_0" index="0" disallow="pedestrian" speed="6.21" length="4.25" shape="780.12,246.94 779.69,248.04 780.05,251.09"/>
    </edge>
    <edge id=":a13_5" function="internal">
        <lane id=":a13_5_0" index="0" disallow="pedestrian" speed="10.35" length="12.98" shape="782.13,243.86 779.27,241.57 776.90,238.06 775.03,233.34"/>
    </edge>
    <edge id=":a13_3" function="internal">
        <lane id=":a13_3_0" index="0" disallow="pedestrian" speed="13.89" length="16.34" shape="769.70,239.60 785.89,241.77"/>
    </edge>
    <edge id=":a13_c0" function="crossing" crossingEdges="a50">
        <lane id=":a13_c0_0" index="0" allow="pedestrian" speed="2.78" length="3.20" width="4.00" shape="781.09,248.75 777.99,249.56"/>
    </edge>
    <edge id=":a13_c1" function="crossing" crossingEdges="a37 a38">
        <lane id=":a13_c1_0" index="0" allow="pedestrian" speed="2.78" length="6.40" width="4.00" shape="784.12,239.92 783.29,246.27"/>
    </edge>
    <edge id=":a13_c2" function="crossing" crossingEdges="a33">
        <lane id=":a13_c2_0" index="0" allow="pedestrian" speed="2.78" length="3.20" width="4.00" shape="774.08,235.72 777.14,234.78"/>
    </edge>
    <edge id=":a13_c3" function="crossing" crossingEdges="a15 a16">
        <lane id=":a13_c3_0" index="0" allow="pedestrian" speed="2.78" length="6.40" width="4.00" shape="771.03,244.62 771.90,238.28"/>
    </edge>
    <edge id=":a13_w0" function="walkingarea">
        <lane id=":a13_w0_0" index="0" allow="pedestrian" speed="2.78" length="3.36" width="4.00" shape="781.59,250.69 783.53,250.19 785.01,248.51 785.27,246.53 783.80,246.46 782.67,246.70 781.89,247.25 781.45,248.09 781.35,249.24"/>
    </edge>
    <edge id=":a13_w1" function="walkingarea">
        <lane id=":a13_w1_0" index="0" allow="pedestrian" speed="2.78" length="7.00" width="4.00" shape="786.10,240.18 786.36,238.20 776.56,232.87 777.36,234.83 778.48,236.49 779.91,237.86 781.66,238.93 783.72,239.70"/>
    </edge>
    <edge id=":a13_w2" function="walkingarea">
        <lane id=":a13_w2_0" index="0" allow="pedestrian" speed="2.78" length="3.36" width="4.00" shape="773.50,233.80 771.59,234.39 770.19,236.03 769.92,238.01 771.43,238.09 772.57,237.85 773.35,237.31 773.77,236.45 773.82,235.28"/>
    </edge>
    <edge id=":a13_w3" function="walkingarea">
        <lane id=":a13_w3_0" index="0" allow="pedestrian" speed="2.78" length="6.93" width="4.00" shape="769.04,244.35 768.77,246.33 778.50,251.49 777.80,249.61 776.75,248.01 775.35,246.68 773.60,245.63 771.50,244.85"/>
    </edge>
    <edge id=":a133-begin_0" function="internal">
        <lane id=":a133-begin_0_0" index="0" allow="bus" speed="3.65" length="4.67" shape="2105.87,528.77 2107.23,529.24 2107.82,529.92 2107.63,530.79 2106.67,531.87"/>
    </edge>
    <edge id=":a133-begin_w0" function="walkingarea">
        <lane id=":a133-begin_w0_0" index="0" allow="pedestrian" speed="2.78" length="8.40" width="2.00" shape="2107.07,533.42 2107.57,535.35 2104.97,525.29 2105.47,527.22"/>
    </edge>
    <edge id=":a15_0" function="internal">
        <lane id=":a15_0_0" index="0" disallow="pedestrian" speed="8.27" length="10.81" shape="1153.17,820.46 1151.33,817.98 1148.53,816.79 1144.77,816.90 1143.90,817.16"/>
        <lane id=":a15_0_1" index="1" disallow="pedestrian" speed="8.86" length="13.15" shape="1153.17,820.46 1150.78,816.69 1147.60,814.58 1143.63,814.13 1142.78,814.34"/>
    </edge>
    <edge id=":a15_2" function="internal">
        <lane id=":a15_2_0" index="0" disallow="pedestrian" speed="7.79" length="16.62" shape="1156.11,819.18 1153.76,812.93 1152.90,808.38 1153.53,805.54 1155.64,804.41"/>
    </edge>
    <edge id=":a15_7" function="internal">
        <lane id=":a15_7_0" index="0" disallow="pedestrian" speed="8.27" length="4.02" shape="1143.90,817.16 1140.05,818.31"/>
    </edge>
    <edge id=":a15_8" function="internal">
        <lane id=":a15_8_0" index="0" disallow="pedestrian" speed="8.86" length="4.03" shape="1142.78,814.34 1138.87,815.33"/>
    </edge>
    <edge id=":a15_3" function="internal">
        <lane id=":a15_3_0" index="0" disallow="pedestrian" speed="6.69" length="9.42" shape="1149.19,795.61 1149.86,798.27 1151.10,800.08 1152.93,801.07 1155.33,801.22"/>
    </edge>
    <edge id=":a15_4" function="internal">
        <lane id=":a15_4_0" index="0" disallow="pedestrian" speed="11.41" length="20.14" shape="1149.19,795.61 1149.24,802.44 1147.54,808.00 1144.08,812.30 1142.37,813.30"/>
    </edge>
    <edge id=":a15_9" function="internal">
        <lane id=":a15_9_0" index="0" disallow="pedestrian" speed="11.41" length="4.05" shape="1142.37,813.30 1138.87,815.33"/>
    </edge>
    <edge id=":a15_5" function="internal">
        <lane id=":a15_5_0" index="0" disallow="pedestrian" speed="13.89" length="20.30" shape="1135.42,806.58 1141.12,804.26 1145.11,802.83 1149.23,801.94 1155.33,801.22"/>
        <lane id=":a15_5_1" index="1" disallow="pedestrian" speed="13.89" length="20.30" shape="1136.59,809.55 1142.05,807.33 1145.87,805.96 1149.81,805.10 1155.64,804.41"/>
    </edge>
    <edge id=":a15_c0" function="crossing" crossingEdges="a191">
        <lane id=":a15_c0_0" index="0" allow="pedestrian" speed="2.78" length="3.20" width="4.00" shape="1147.85,797.80 1151.02,797.40"/>
    </edge>
    <edge id=":a15_c1" function="crossing" crossingEdges="a72[1]">
        <lane id=":a15_c1_0" index="0" allow="pedestrian" speed="2.78" length="6.40" width="4.00" shape="1139.04,810.29 1136.67,804.34"/>
    </edge>
    <edge id=":a15_c2" function="crossing" crossingEdges="a17">
        <lane id=":a15_c2_0" index="0" allow="pedestrian" speed="2.78" length="6.40" width="4.00" shape="1142.50,819.06 1140.15,813.11"/>
    </edge>
    <edge id=":a15_w0" function="walkingarea">
        <lane id=":a15_w0_0" index="0" allow="pedestrian" speed="2.78" length="6.90" width="4.00" shape="1140.63,819.80 1141.37,821.66 1149.87,821.89 1151.71,821.10 1150.81,819.72 1149.54,818.80 1147.89,818.35 1145.85,818.37 1143.43,818.85"/>
    </edge>
    <edge id=":a15_w1" function="walkingarea">
        <lane id=":a15_w1_0" index="0" allow="pedestrian" speed="2.78" length="3.73" width="4.00" shape="1155.17,799.63 1154.98,797.64 1152.76,795.17 1150.77,795.42 1151.05,796.81 1151.52,797.92 1152.16,798.76 1152.98,799.33 1153.99,799.62"/>
    </edge>
    <edge id=":a15_w2" function="walkingarea">
        <lane id=":a15_w2_0" index="0" allow="pedestrian" speed="2.78" length="10.00" width="4.00" shape="1147.60,795.81 1134.09,803.23 1134.84,805.08 1138.86,803.35 1142.14,801.68 1144.65,800.10 1146.40,798.59 1147.38,797.16"/>
    </edge>
    <edge id=":a15_w3" function="walkingarea">
        <lane id=":a15_w3_0" index="0" allow="pedestrian" speed="2.78" length="3.03" width="4.00" shape="1142.01,812.37 1138.29,813.84 1137.19,811.03 1140.90,809.55"/>
    </edge>
    <edge id=":a16_0" function="internal">
        <lane id=":a16_0_0" index="0" disallow="pedestrian" speed="13.89" length="8.56" shape="1012.48,854.74 1010.06,855.56 1008.67,856.94 1007.27,858.28 1004.84,859.01"/>
        <lane id=":a16_0_1" index="1" disallow="pedestrian" speed="13.89" length="8.56" shape="1012.13,851.55 1009.75,852.37 1008.38,853.75 1007.01,855.09 1004.62,855.82"/>
        <lane id=":a16_0_2" index="2" disallow="pedestrian" speed="13.89" length="8.56" shape="1012.13,851.55 1004.40,852.63"/>
    </edge>
    <edge id=":a16_w0" function="walkingarea">
        <lane id=":a16_w0_0" index="0" allow="pedestrian" speed="2.78" length="8.84" width="2.00" shape="1004.96,860.61 1005.09,862.60 1006.90,862.21 1008.10,861.46 1008.98,860.52 1009.87,859.57 1011.06,858.78 1012.86,858.31 1012.65,856.33 1010.86,856.79 1009.69,857.58 1008.81,858.53 1007.93,859.47 1006.75,860.22"/>
    </edge>
    <edge id=":a18_0" function="internal">
        <lane id=":a18_0_0" index="0" disallow="pedestrian" speed="10.13" length="14.32" shape="816.77,388.44 814.66,384.21 812.41,381.11 810.01,379.14 807.48,378.31"/>
    </edge>
    <edge id=":a18_1" function="internal">
        <lane id=":a18_1_0" index="0" disallow="pedestrian" speed="7.10" length="15.16" shape="816.77,388.44 814.80,382.82 814.39,378.90 815.55,376.70 818.28,376.19"/>
    </edge>
    <edge id=":a18_2" function="internal">
        <lane id=":a18_2_0" index="0" disallow="pedestrian" speed="13.89" length="10.54" shape="817.96,379.38 807.48,378.31"/>
    </edge>
    <edge id=":a18_3" function="internal">
        <lane id=":a18_3_0" index="0" disallow="pedestrian" speed="8.04" length="10.48" shape="810.85,369.85 811.87,372.40 813.45,374.31 815.59,375.57 818.28,376.19"/>
    </edge>
    <edge id=":a18_4" function="internal">
        <lane id=":a18_4_0" index="0" disallow="pedestrian" speed="6.41" length="11.12" shape="810.85,369.85 811.52,373.77 811.18,376.49 809.84,378.00 807.48,378.31"/>
    </edge>
    <edge id=":a18_5" function="internal">
        <lane id=":a18_5_0" index="0" disallow="pedestrian" speed="13.89" length="10.53" shape="807.81,375.12 818.28,376.19"/>
    </edge>
    <edge id=":a18_c0" function="crossing" crossingEdges="a51">
        <lane id=":a18_c0_0" index="0" allow="pedestrian" speed="2.78" length="3.20" width="4.00" shape="817.46,385.97 814.51,387.23"/>
    </edge>
    <edge id=":a18_c1" function="crossing" crossingEdges="a219 a220">
        <lane id=":a18_c1_0" index="0" allow="pedestrian" speed="2.78" length="6.40" width="4.00" shape="816.45,374.40 815.81,380.77"/>
    </edge>
    <edge id=":a18_c2" function="crossing" crossingEdges="a50">
        <lane id=":a18_c2_0" index="0" allow="pedestrian" speed="2.78" length="3.20" width="4.00" shape="809.80,372.18 812.90,371.38"/>
    </edge>
    <edge id=":a18_c3" function="crossing" crossingEdges="a19 a20">
        <lane id=":a18_c3_0" index="0" allow="pedestrian" speed="2.78" length="6.40" width="4.00" shape="809.30,380.11 809.97,373.74"/>
    </edge>
    <edge id=":a18_w0" function="walkingarea">
        <lane id=":a18_w0_0" index="0" allow="pedestrian" speed="2.78" length="7.46" width="4.00" shape="807.31,379.90 807.11,381.89 813.46,389.85 815.30,389.07 814.04,386.39 812.76,384.17 811.44,382.41 810.10,381.12 808.72,380.28"/>
    </edge>
    <edge id=":a18_w1" function="walkingarea">
        <lane id=":a18_w1_0" index="0" allow="pedestrian" speed="2.78" length="3.90" width="4.00" shape="818.24,387.81 817.60,382.96 817.80,380.97 817.10,381.09 816.70,381.62 816.62,382.55 816.85,383.90 817.39,385.65"/>
    </edge>
    <edge id=":a18_w2" function="walkingarea">
        <lane id=":a18_w2_0" index="0" allow="pedestrian" speed="2.78" length="4.68" width="4.00" shape="818.44,374.60 818.64,372.61 814.33,368.94 812.40,369.44 812.90,370.89 813.61,372.09 814.52,373.07 815.62,373.81 816.93,374.32"/>
    </edge>
    <edge id=":a18_w3" function="walkingarea">
        <lane id=":a18_w3_0" index="0" allow="pedestrian" speed="2.78" length="1.85" width="4.00" shape="809.30,370.25 808.19,371.54 807.98,373.53 808.64,373.51 809.12,373.27 809.43,372.83 809.56,372.18 809.52,371.32"/>
    </edge>
    <edge id=":a19_0" function="internal">
        <lane id=":a19_0_0" index="0" disallow="pedestrian" speed="13.89" length="15.70" shape="729.27,380.39 727.58,376.17 726.70,373.18 725.85,370.17 724.24,365.92"/>
        <lane id=":a19_0_1" index="1" disallow="pedestrian" speed="13.89" length="15.70" shape="729.27,380.39 728.00,375.90 728.17,372.55 728.36,369.18 727.18,364.66"/>
    </edge>
    <edge id=":a19_2" function="internal">
        <lane id=":a19_2_0" index="0" disallow="pedestrian" speed="8.43" length="10.94" shape="729.27,380.39 727.55,374.32 728.76,370.25 729.10,370.07"/>
    </edge>
    <edge id=":a19_7" function="internal">
        <lane id=":a19_7_0" index="0" disallow="pedestrian" speed="8.43" length="11.30" shape="729.10,370.07 732.89,368.16 739.94,368.05"/>
    </edge>
    <edge id=":a19_3" function="internal">
        <lane id=":a19_3_0" index="0" disallow="pedestrian" speed="6.17" length="11.25" shape="739.61,371.23 736.23,371.33 734.30,372.47 733.82,374.67 734.78,377.91"/>
    </edge>
    <edge id=":a19_4" function="internal">
        <lane id=":a19_4_0" index="0" disallow="pedestrian" speed="10.91" length="16.72" shape="739.61,371.23 733.51,370.37 728.91,369.19 725.82,367.71 724.24,365.92"/>
    </edge>
    <edge id=":a19_5" function="internal">
        <lane id=":a19_5_0" index="0" disallow="pedestrian" speed="9.05" length="7.30" shape="730.13,363.41 731.35,365.12 733.39,366.46 735.99,367.35"/>
    </edge>
    <edge id=":a19_6" function="internal">
        <lane id=":a19_6_0" index="0" disallow="pedestrian" speed="13.89" length="15.25" shape="730.13,363.41 731.68,367.65 732.40,370.68 733.16,373.70 734.78,377.91"/>
    </edge>
    <edge id=":a19_8" function="internal">
        <lane id=":a19_8_0" index="0" disallow="pedestrian" speed="9.05" length="4.01" shape="735.99,367.35 736.25,367.44 739.94,368.05"/>
    </edge>
    <edge id=":a19_c0" function="crossing" crossingEdges="a21b">
        <lane id=":a19_c0_0" index="0" allow="pedestrian" speed="2.78" length="3.20" width="4.00" shape="729.90,377.90 726.99,379.22"/>
    </edge>
    <edge id=":a19_c1" function="crossing" crossingEdges="a22">
        <lane id=":a19_c1_0" index="0" allow="pedestrian" speed="2.78" length="3.20" width="4.00" shape="735.42,375.43 732.50,376.74"/>
    </edge>
    <edge id=":a19_c2" function="crossing" crossingEdges="a20 a19">
        <lane id=":a19_c2_0" index="0" allow="pedestrian" speed="2.78" length="6.40" width="4.00" shape="738.12,366.25 737.45,372.62"/>
    </edge>
    <edge id=":a19_c3" function="crossing" crossingEdges="a103 a24">
        <lane id=":a19_c3_0" index="0" allow="pedestrian" speed="2.78" length="9.60" width="4.00" shape="723.55,368.39 732.38,364.62"/>
    </edge>
    <edge id=":a19_w0" function="walkingarea">
        <lane id=":a19_w0_0" index="0" allow="pedestrian" speed="2.78" length="9.67" width="4.00" shape="722.77,366.55 720.93,367.33 722.13,370.38 722.88,372.68 723.40,374.62 723.94,376.55 724.72,378.84 725.98,381.86 727.81,381.04 726.55,378.03 725.77,375.74 725.23,373.82 724.71,371.89 723.97,369.58"/>
    </edge>
    <edge id=":a19_w1" function="walkingarea">
        <lane id=":a19_w1_0" index="0" allow="pedestrian" speed="2.78" length="3.36" width="4.00" shape="736.24,377.25 738.07,376.43 739.24,374.81 739.44,372.82 737.84,372.79 736.67,373.06 735.92,373.65 735.60,374.54 735.71,375.74"/>
    </edge>
    <edge id=":a19_w2" function="walkingarea">
        <lane id=":a19_w2_0" index="0" allow="pedestrian" speed="2.78" length="5.57" width="4.00" shape="740.11,366.46 740.31,364.47 733.44,362.00 731.60,362.78 732.18,363.69 733.10,364.49 734.35,365.16 735.93,365.71 737.85,366.15"/>
    </edge>
    <edge id=":a19_w3" function="walkingarea">
        <lane id=":a19_w3_0" index="0" allow="pedestrian" speed="2.78" length="2.85" width="4.00" shape="731.68,374.91 733.32,378.56 730.73,379.73 729.08,376.08"/>
    </edge>
    <edge id=":a1b_0" function="internal">
        <lane id=":a1b_0_0" index="0" disallow="pedestrian" speed="13.89" length="15.83" shape="1824.00,835.41 1828.46,836.98 1831.32,838.52 1834.13,840.24 1838.40,842.32"/>
        <lane id=":a1b_0_1" index="1" disallow="pedestrian" speed="13.89" length="15.83" shape="1823.12,838.48 1827.46,840.03 1830.25,841.54 1832.98,843.23 1837.15,845.27"/>
    </edge>
    <edge id=":a1b_2" function="internal">
        <lane id=":a1b_2_0" index="0" disallow="pedestrian" speed="13.89" length="15.01" shape="1826.97,846.37 1831.01,831.81"/>
        <lane id=":a1b_2_1" index="1" disallow="pedestrian" speed="13.89" length="15.01" shape="1830.10,847.08 1834.11,832.61"/>
        <lane id=":a1b_2_2" index="2" disallow="pedestrian" speed="13.89" length="15.01" shape="1833.22,847.78 1837.21,833.42"/>
    </edge>
    <edge id=":a1b_c0" function="crossing" crossingEdges="a203[1]b">
        <lane id=":a1b_c0_0" index="0" allow="pedestrian" speed="2.78" length="9.60" width="4.00" shape="1828.96,833.35 1838.26,835.75"/>
    </edge>
    <edge id=":a1b_c1" function="crossing" crossingEdges="a1b">
        <lane id=":a1b_c1_0" index="0" allow="pedestrian" speed="2.78" length="6.40" width="4.00" shape="1824.60,840.58 1826.37,834.42"/>
    </edge>
    <edge id=":a1b_w0" function="walkingarea">
        <lane id=":a1b_w0_0" index="0" allow="pedestrian" speed="2.78" length="4.34" width="4.00" shape="1839.03,840.85 1839.81,839.01 1838.76,833.82 1838.32,835.74 1838.07,837.37 1838.02,838.69 1838.16,839.71 1838.50,840.43"/>
    </edge>
    <edge id=":a1b_w1" function="walkingarea">
        <lane id=":a1b_w1_0" index="0" allow="pedestrian" speed="2.78" length="3.27" width="4.00" shape="1829.46,831.41 1827.53,830.91 1825.00,831.95 1824.44,833.87 1825.72,834.13 1826.82,834.12 1827.74,833.84 1828.49,833.30 1829.06,832.49"/>
    </edge>
    <edge id=":a1b_w2" function="walkingarea">
        <lane id=":a1b_w2_0" index="0" allow="pedestrian" speed="2.78" length="5.22" width="4.00" shape="1822.67,840.02 1823.46,845.57 1825.41,846.02 1825.65,844.49 1825.60,843.18 1825.28,842.07 1824.69,841.18 1823.82,840.50"/>
    </edge>
    <edge id=":a1c_0" function="internal">
        <lane id=":a1c_0_0" index="0" disallow="pedestrian" speed="6.43" length="4.99" shape="1855.85,820.19 1855.63,822.75 1856.30,824.71 1856.56,824.94"/>
    </edge>
    <edge id=":a1c_1" function="internal">
        <lane id=":a1c_1_0" index="0" disallow="pedestrian" speed="13.89" length="10.49" shape="1855.85,820.19 1853.34,830.45"/>
        <lane id=":a1c_1_1" index="1" disallow="pedestrian" speed="13.89" length="10.49" shape="1852.74,819.46 1850.24,829.65"/>
        <lane id=":a1c_1_2" index="2" disallow="pedestrian" speed="13.89" length="10.49" shape="1849.62,818.73 1847.14,828.85"/>
    </edge>
    <edge id=":a1c_5" function="internal">
        <lane id=":a1c_5_0" index="0" disallow="pedestrian" speed="6.43" length="4.29" shape="1856.56,824.94 1857.86,826.07 1860.31,826.83"/>
    </edge>
    <edge id=":a1c_4" function="internal">