<?xml version="1.0" encoding="UTF-8"?>

<!-- generated on 2024-05-24 09:40:34.944004 by routeSampler.py v1_19_0+0000-baa66a0f364
<configuration>
    <route-files value=".\sampleRoutes.rou.xml"/>
    <edgedata-files value=".\edgedata.xml"/>
    <output-file value="routesampled.rou.xml"/>
</configuration>
-->

<routes xmlns:xsi="http://www.w3.org/2001/XMLSchema-instance" xsi:noNamespaceSchemaLocation="http://sumo.dlr.de/xsd/routes_file.xsd">
<!-- begin="0.0" end="3600.0" -->
	<vType id="passenger" vClass="passenger" length="4">
	<param key="has.rerouting.device" value="true"/>
	<param key="device.rerouting.preperiod" value="60"/>
	<param key="device.rerouting.period" value="300"/>
	</vType>
    <vehicle id="0" depart="0.43">
        <route edges="b5[1][1][1] b16[0] b16[1] b18 b20+19a ba1[1] b1[1] a72[0] a72[1] a69 a161 a194 a91 a186 a109[0] a109[1][0]+20003"/>
    </vehicle>
    <vehicle id="1" depart="0.63">
        <route edges="a210 a43[0] a43[1] a201 a201c a204a[0] a124 b12 b56[0] b39[0] b39[1][0] b39[1][1][0] b46 a181 a18 a69"/>
    </vehicle>
    <vehicle id="2" depart="0.87">
        <route edges="b1[0] ba1[1] b1[1] b38[0] b38[0]a b38[1][0] b96 b49[1]"/>
    </vehicle>
    <vehicle id="3" depart="2.30">
        <route edges="a78[0] a56a am1 a21b a103 a14"/>
    </vehicle>
    <vehicle id="4" depart="3.91">
        <route edges="b1[0] b25 b23 b17[0] b17[1] b8 b10"/>
    </vehicle>
    <vehicle id="5" depart="4.06">
        <route edges="a43[1] a201 a201c a204a[0] a204b[0] a204[1][0] a204[1][1]"/>
    </vehicle>
    <vehicle id="6" depart="4.73">
        <route edges="b1[0] ba1[1] b1[1] a67 a80 a127 a77[1][0] a77[1][1]"/>
    </vehicle>
    <vehicle id="7" depart="4.92">
        <route edges="a203[0] a203[1] a203[1]b a202 a34 a113 a118 a119 a116 a46 a201 a201c a204a[0] a204b[0] a54"/>
    </vehicle>
    <vehicle id="8" depart="9.39">
        <route edges="a201 a201c a204a[0] a124 b12 b56[0] b39[0] b39[1][0] b39[1][1][0] b46 a181 a18 a69 a161 a194 a91 a173"/>
    </vehicle>
    <vehicle id="9" depart="9.61">
        <route edges="b1[0] b25 b23 b17[0] b17[1] b11[0] b11[1][1] b101 b34[0] b34[1][0]"/>
    </vehicle>
    <vehicle id="10" depart="10.67">
        <route edges="b1[0] ba1[1] b1[1] b38[0] b38[0]a b37 b26"/>
    </vehicle>
    <vehicle id="11" depart="12.14">
        <route edges="a203[0] b12 b56[0] b39[0] b39[1][0] b96 b49[1] b55"/>
    </vehicle>
    <vehicle id="12" depart="12.41">
        <route edges="a203[0] a203[1] a203[1]b a202 a34 a134 a134b"/>
    </vehicle>
    <vehicle id="13" depart="12.73">
        <route edges="b39[0] b39[1][0] b39[1][1][0] b39[1][1][1] b45 b2[0] b2[1][0] b2[1][1][0] b2[1][1][1]"/>
    </vehicle>
    <vehicle id="14" depart="12.98">
        <route edges="a204a[0] a124 b12 b56[0] b39[0] b39[1][0] b39[1][1][0] b39[1][1][1] b45 a67 a80 a127 a77[1][0] a77[1][1]"/>
    </vehicle>
    <vehicle id="15" depart="13.01">
        <route edges="b1[0] ba1[1] b1[1] b38[0] b38[0]a b38[1][0] b96 b49[1] b55 b53 b53a"/>
    </vehicle>
    <vehicle id="16" depart="13.38">
        <route edges="a87[0] a20001+87[1][0] a87[1][1] am90 a171 a161 a122 a1b a1 a204a[0] a124 b12 b56[0] b56[1][0] b56[1][1] b5[1][0]+66 b5[1][1][1] b16[0] b29[0] b29[1]"/>
    </vehicle>
    <vehicle id="17" depart="17.90">
        <route edges="b1[0] ba1[1] b1[1] a67 a80 a127 a77[1][0] a77ab a77bc a77cd a53cd a53[0] a78[1][1] a189[0] a189[1][0]+20000 a189[1][1] a188 a87[0]"/>
    </vehicle>
    <vehicle id="18" depart="20.29">
        <route edges="a17 a71 b38[0] b38[0]a b38[1][0] b38[1][1] b38[1][1]a b56[1][0] b56[1][1] b5[1][0]+66 b33"/>
    </vehicle>
    <vehicle id="19" depart="20.39">
        <route edges="a78[0] a56a a56b a77bc a77cd a53cd a53[0] a53[1][0] a53[1][1][0] a77[1][0] a77[1][1]"/>
    </vehicle>
    <vehicle id="20" depart="21.17">
        <route edges="b5[1][1][1] b16[0] b30 b31 b11[1][1] b101 b34[0]"/>
    </vehicle>
    <vehicle id="21" depart="21.90">
        <route edges="b1[0] ba1[1] b1[1] b38[0] b38[0]a b37 b26 b26.-170"/>
    </vehicle>
    <vehicle id="22" depart="25.83">
        <route edges="a224[0] a224[1] a181 a18 a69 a161 a122 a1b a1 a204a[0] a204b[0] a54"/>
    </vehicle>
    <vehicle id="23" depart="26.65">
        <route edges="a78[0] a56a am1 a21b a103 a16 a37"/>
    </vehicle>
    <vehicle id="24" depart="27.54">
        <route edges="b63[0] b63[1] b4[0] b28 b28a b16[1] b18 b20+19a ba1[1] b1[1] a72[0] a72[1] a69 a161 a122 a1b a1 a204a[0] a204b[0] a54"/>
    </vehicle>
    <vehicle id="25" depart="28.10">
        <route edges="b34[0] b34[1][0] b36 b39[1][1][1] b45 b2[0]"/>
    </vehicle>
    <vehicle id="26" depart="29.01">
        <route edges="b13[0] b14 b18 b20+19a ba1[1] b1[1] b38[0] b38[0]a b46 a181 a18 a17 a71 b2[0]"/>
    </vehicle>
    <vehicle id="27" depart="29.10">
        <route edges="b1[0] b25 b23 b17[0] b17[1] b8 b4[1][1][1]"/>
    </vehicle>
    <vehicle id="28" depart="29.52">
        <route edges="a78[0] a56a a56b a77bc a77cd a53cd a82 a51 a219 a218 a36 a40 a41 a160"/>
    </vehicle>
    <vehicle id="29" depart="31.76">
        <route edges="b101 b34[0] b34[1][0] b36 b46 a181 a18 a69 a161 a122 a1b a1 a204a[0] a204b[0] a54"/>
    </vehicle>
    <vehicle id="30" depart="31.92">
        <route edges="b39[0] b39[1][0] b39[1][1][0] b39[1][1][1] b45 b2[0] b2[1][0] b2[1][1][0] b2[1][1][1]"/>
    </vehicle>
    <vehicle id="31" depart="31.98">
        <route edges="b49[1] b55 b56[0] b39[0] b39[1][0] b39[1][1][0] b46 a181 a18 a69 a161 a122 a1b a1 a204a[0] a204b[0] a54"/>
    </vehicle>
    <vehicle id="32" depart="32.09">
        <route edges="a1b a1 a204a[0] a204b[0] a204[1][0] a204[1][1]"/>
    </vehicle>
    <vehicle id="33" depart="32.80">
        <route edges="a203[0] a203[1] a203[1]b a202 a34 a113 a118 a65 a57[0] a57[1] a62 a159"/>
    </vehicle>
    <vehicle id="34" depart="34.51">
        <route edges="a91 a186 a109[0] a109[1][0]+20003 a109[1][1] a116 a46 a201 a201c a204a[0] a204b[0] a204[1][0] a204[1][1]"/>
    </vehicle>
    <vehicle id="35" depart="35.31">
        <route edges="b1[0] ba1[1]"/>
    </vehicle>
    <vehicle id="36" depart="35.58">
        <route edges="b1[0] b25 b23 b17[0] b17[1] b11[0] b11[1][1] b101 b34[0] b34[1][0]"/>
    </vehicle>
    <vehicle id="37" depart="35.90">
        <route edges="a203[0] b12 b56[0] b39[0] b39[1][0] b39[1][1][0] b46 a181 a18 a69 a161 a194 a91 a173"/>
    </vehicle>
    <vehicle id="38" depart="36.27">
        <route edges="b96 b49[1] b55 b56[0] b39[0] b39[1][0] b39[1][1][0] b39[1][1][1] b45 b2[0] b2[1][0] b2[1][1][0] b2[1][1][1] b2[1][1][1]b"/>
    </vehicle>
    <vehicle id="39" depart="37.31">
        <route edges="b1[0] ba1[1] b1[1] a72[0] a72[1] a69 a161 a122 a3"/>
    </vehicle>
    <vehicle id="40" depart="37.83">
        <route edges="b1[0] ba1[1] b1[1] b38[0] b38[0]a b46 a181 a18 a17"/>
    </vehicle>
    <vehicle id="41" depart="39.77">
        <route edges="b38[0] b38[0]a b46 a181 a18 a69 a161 a122 a1b a1 a204a[0] a204b[0] a54"/>
    </vehicle>
    <vehicle id="42" depart="40.40">
        <route edges="a78[0] a56a a56b a77bc a77cd a53cd a53[0] a53[1][0] a79 a68 a11 b38[0] b38[0]a b37 b26 b26.-170 b15 b13[1]"/>
    </vehicle>
    <vehicle id="43" depart="41.39">
        <route edges="a203[0] a203[1] a203[1]b a202 a34 a113 a209"/>
    </vehicle>
    <vehicle id="44" depart="42.68">
        <route edges="a220b a220 a19 a22 a59 a53cd a53[0] a53[1][0] a79 a68 a11 b2[0] b2[1][0] b2[1][1][0] b2[1][1][1] b2[1][1][1]b"/>
    </vehicle>
    <vehicle id="45" depart="42.86">
        <route edges="a210 a43[0] a43[1] a201 a201c a204a[0] a124 b12 b56[0] b39[0] b39[1][0]"/>
    </vehicle>
    <vehicle id="46" depart="42.98">
        <route edges="b1[0] ba1[1] b1[1] a67 a80 a127 a77[1][0] a77ab a77bc a77cd a53cd a53[0] a78[1][1] a189[0] a189[1][0]+20000 a189[1][1] a188 a87[0] a20001+87[1][0] a87[1][1] am90 a171"/>
    </vehicle>
    <vehicle id="47" depart="43.62">
        <route edges="a201c a204a[0] a124 b12 b56[0] b39[0] b39[1][0] b39[1][1][0] b39[1][1][1] b45 a67 a80 a127 a77[1][0] a77ab a77bc a77cd a53cd a82 a51 a219 a218 a36 a40 a93 a28"/>
    </vehicle>
    <vehicle id="48" depart="44.60">
        <route edges="a69 a161 a122 a1b a1 a204a[0] a204b[0] a204[1][0] a204[1][1]"/>
    </vehicle>
    <vehicle id="49" depart="44.67">
        <route edges="a78[0] a56a a56b a77bc a77cd a53cd a53[0] a53[1][0] a79 a68 a11 b38[0] b38[0]a b38[1][0] b96"/>
    </vehicle>
    <vehicle id="50" depart="45.17">
        <route edges="b1[0] ba1[1] b1[1] b38[0] b38[0]a b46 a181 a18 a17"/>
    </vehicle>
    <vehicle id="51" depart="45.86">
        <route edges="b65 b5[1][0]+66 b5[1][1][1] b16[0] b16[1] b18 b20+19b b2[1][1][1]b"/>
    </vehicle>
    <vehicle id="52" depart="46.15">
        <route edges="a203[0] a203[1] a203[1]b a202 a34 a113 a118 a65 a57[0] a57[1] a62 a159 a42 a39 a35 a38 a33 a10"/>
    </vehicle>
    <vehicle id="53" depart="46.29">
        <route edges="b1[0] b25 b23 b17[0] b17[1] b11[0] b11[1][1] b70"/>
    </vehicle>
    <vehicle id="54" depart="47.22">
        <route edges="b1[0] b21"/>
    </vehicle>
    <vehicle id="55" depart="47.63">
        <route edges="a203[0] a203[1] a203[1]b a202 a34 a113 a118 a119 a116 a46 a201 a201c a204a[0] a204b[0] a54"/>
    </vehicle>
    <vehicle id="56" depart="47.77">
        <route edges="a119 a116 a46 a201 a201c a204a[0] a124 b12 b56[0] b39[0] b39[1][0] b39[1][1][0] b39[1][1][1] b45 b2[0] b2[1][0] b2[1][1][0] b21"/>
    </vehicle>
    <vehicle id="57" depart="48.44">
        <route edges="b39[1][1][1] b45 a67 a80 a127 a77[1][0] a77ab a77bc a77cd a53cd a82 a51 a219 a218 a36 a40 a93 a28"/>
    </vehicle>
    <vehicle id="58" depart="48.89">
        <route edges="b1[0] ba1[1]"/>
    </vehicle>
    <vehicle id="59" depart="49.76">
        <route edges="b1[0] ba1[1] b1[1] b38[0] b38[0]a b46"/>
    </vehicle>
    <vehicle id="60" depart="50.71">
        <route edges="a78[0] a56a a56b a77bc a77cd a53cd a53[0] a53[1][0] a79 a68 a11 b38[0] b38[0]a b38[1][0] b38[1][1] b38[1][1]a"/>
    </vehicle>
    <vehicle id="61" depart="51.22">
        <route edges="b1[0] ba1[1] b1[1] b38[0] b38[0]a b46"/>
    </vehicle>
    <vehicle id="62" depart="51.38">
        <route edges="a165 a31 a201 a201c a204a[0] a124 b12 b56[0] b39[0] b39[1][0] b39[1][1][0] b39[1][1][1] b45 b2[0] b2[1][0] b2[1][1][0] b2[1][1][1]"/>
    </vehicle>
    <vehicle id="63" depart="51.45">
        <route edges="a58[0] a58[1] a66 a119 a116 a46 a201 a201c a204a[0] a124 b12 b56[0] b39[0] b39[1][0] b39[1][1][0] b39[1][1][1] b45 b2[0] b2[1][0] b2[1][1][0] b21"/>
    </vehicle>
    <vehicle id="64" depart="51.58">
        <route edges="a159 a42 a153 a87[0] a20001+87[1][0] a87[1][1] am90 a171 a161 a122 a1b a1 a204a[0] a204b[0] a54"/>
    </vehicle>
    <vehicle id="65" depart="53.01">
        <route edges="b1[0] b25 b23 b17[0] b17[1] b11[0] b11[1][1] b101"/>
    </vehicle>
    <vehicle id="66" depart="53.85">
        <route edges="a40 a153 a87[0] a20001+87[1][0] a87[1][1] am90 a171 a161 a122 a1b a1 a204a[0] a204b[0] a54"/>
    </vehicle>
    <vehicle id="67" depart="54.32">
        <route edges="a78[0] a56a am1 a21b a103 a14 a9 a211 a45 a44"/>
    </vehicle>
    <vehicle id="68" depart="56.19">
        <route edges="a91 a186 a109[0] a109[1][0]+20003 a109[1][1] a116 a46 a201 a201c a204a[0] a204b[0] a204[1][0] a204[1][1]"/>
    </vehicle>
    <vehicle id="69" depart="56.20">
        <route edges="b1[0] b25 b23 b17[0] b17[1] b11[0] b11[1][1] b101"/>
    </vehicle>
    <vehicle id="70" depart="56.42">
        <route edges="a203[0] a203[1] a203[1]b a202 a34 a113 a118 a65 a57[0] a57[1] a62 a159 a42 a153 a87[0]"/>
    </vehicle>
    <vehicle id="71" depart="56.50">
        <route edges="a153 a87[0] a20001+87[1][0] a87[1][1] am90 a171 a161 a122 a1b a1 a204a[0] a204b[0] a54"/>
    </vehicle>
    <vehicle id="72" depart="56.58">
        <route edges="a78[0] a56a a56b a77bc a77cd a53cd a53[0] a53[1][0] a79 a68 a11 b2[0] b34[1][2] b36 b39[1][1][1]"/>
    </vehicle>
    <vehicle id="73" depart="56.79">
        <route edges="a203[1] a203[1]b a202 a34 a113 a118 a119 a116 a46"/>
    </vehicle>
    <vehicle id="74" depart="57.22">
        <route edges="b1[0] ba1[1] b1[1] a67 a80 a127 a77[1][0] a77ab a77bc a77cd a53cd a82 a51 a19 a22 a59"/>
    </vehicle>
    <vehicle id="75" depart="58.85">
        <route edges="a65 a57[0] a57[1] a62 a159 a42 a39 a35 a38 a15 a24 a22 a59 a53cd a53[0] a53[1][0] a79 a68 a11 b2[0] b2[1][0] b2[1][1][0] b21"/>
    </vehicle>
    <vehicle id="76" depart="61.54">
        <route edges="a165 a31 a201 a201c a204a[0] a124 b12 b56[0] b39[0] b39[1][0] b39[1][1][0] b37 b26 b26.-170 b15 b13[1] b4[0] b28"/>
    </vehicle>
    <vehicle id="77" depart="61.73">
        <route edges="a127 a77[1][0] a77ab a77bc a77cd a53cd a53[0] a53[1][0] a79 a68 a11 b2[0] b2[1][0] b2[1][1][0] b2[1][1][1]"/>
    </vehicle>
    <vehicle id="78" depart="61.75">
        <route edges="a203[0] a203[1] a203[1]b a202 a34 a113 a118 a65 a57[0] a57[1] a62 a159 a42 a39 a35 a38 a33 a10"/>
    </vehicle>
    <vehicle id="79" depart="62.37">
        <route edges="a78[0] a56a a56b a77bc a77cd a53cd a53[0] a78[1][1] a189[0] a189[1][0]+20000 a189[1][1] a188 a87[0] a20001+87[1][0] a87[1][1] am90 a89[0] a20002+89[1][0] a89[1][1] a91 a186 a109[0] a109[1][0]+20003 a109[1][1] a116 a46 a113 a209"/>
    </vehicle>
    <vehicle id="80" depart="62.89">
        <route edges="b1[0] ba1[1] b1[1] a72[0] a72[1] a69 a161 a122 a1b a1 a204a[0] a204b[0] a204[1][0] a204[1][1]"/>
    </vehicle>
    <vehicle id="81" depart="63.33">
        <route edges="a78[0] a56a a56b a77bc a77cd a53cd a53[0] a78[1][1] a189[0] a189[1][0]+20000 a189[1][1] a188 a87[0] a20001+87[1][0] a87[1][1] am90 a89[0] a20002+89[1][0] a89[1][1] a91 a186 a109[0] a109[1][0]+20003 a109[1][1] a120 a65 a57[0]"/>
    </vehicle>
    <vehicle id="82" depart="64.07">
        <route edges="am1 a21b a20 a219 a218 a36 a40 a153 a87[0] a20001+87[1][0] a87[1][1] am90 a171 a161 a122 a1b a1 a204a[0] a204b[0] a54"/>
    </vehicle>
    <vehicle id="83" depart="65.52">
        <route edges="a78[0] a56a a56b a77bc a77cd a53cd a53[0] a53[1][0] a79 a68 a11 b38[0] b38[0]a b37 b26 b26.-170 b17[0]"/>
    </vehicle>
    <vehicle id="84" depart="65.54">
        <route edges="a78[0] a56a a56b a77bc a77cd a53cd a53[0] a78[1][1] a189[0] a189[1][0]+20000 a189[1][1] a188 a87[0] a20001+87[1][0] a87[1][1] am90 a89[0] a20002+89[1][0] a89[1][1] a91 a186 a109[0] a109[1][0]+20003 a109[1][1] a116 a46 a113 a209"/>
    </vehicle>
    <vehicle id="85" depart="65.76">
        <route edges="a203[0] a203[1] a203[1]b a202 a34 a113 a118 a119 a116 a46 a201 a4c"/>
    </vehicle>
    <vehicle id="86" depart="65.94">
        <route edges="b25 b23 b15 b14 b18 b20+19a ba1[1] b1[1] a72[0] a72[1] a69 a161 a122 a1b a1 a204a[0] a204b[0] a54"/>
    </vehicle>
    <vehicle id="87" depart="65.95">
        <route edges="b1[0] ba1[1] b1[1] b38[0] b38[0]a b38[1][0] b96 b49[1] b55 b53 b53a"/>
    </vehicle>
    <vehicle id="88" depart="66.77">
        <route edges="b39[0] b39[1][0] b39[1][1][0] b39[1][1][1] b45 b2[0] b2[1][0] b2[1][1][0]"/>
    </vehicle>
    <vehicle id="89" depart="67.62">
        <route edges="a203[1] a203[1]b a202 a34 a113 a118 a119 a116 a46"/>
    </vehicle>
    <vehicle id="90" depart="67.94">
        <route edges="a78[0] a56a a56b a77bc a77cd a53cd a53[0] a78[1][1] a189[0] a189[1][0]+20000 a189[1][1] a188 a87[0] a20001+87[1][0] a87[1][1] am90 a89[0] a20002+89[1][0] a89[1][1] a91 a173 a62"/>
    </vehicle>
    <vehicle id="91" depart="68.75">
        <route edges="a34 a113 a118 a119 a116 a46 a201 a201c a204a[0] a204b[0] a204[1][0] a204[1][1]"/>
    </vehicle>
    <vehicle id="92" depart="68.76">
        <route edges="a201 a201c a204a[0] a204b[0] a54"/>
    </vehicle>
    <vehicle id="93" depart="69.55">
        <route edges="a203[1] a203[1]b a202 a34 a113 a209"/>
    </vehicle>
    <vehicle id="94" depart="69.97">
        <route edges="a78[0] a56a a56b a77bc a77cd a53cd a53[0] a53[1][0] a79 a68 a11 b38[0] b38[0]a b37 b26 b26.-170 b17[0] b29[0]"/>
    </vehicle>
    <vehicle id="95" depart="70.68">
        <route edges="a58[0] a58[1] a66 a119 a116 a46 a201 a201c a204a[0] a124 b12 b56[0] b39[0] b39[1][0] b39[1][1][0] b39[1][1][1] b45 a67 a80 a127"/>
    </vehicle>
    <vehicle id="96" depart="70.88">
        <route edges="b1[0] ba1[1] b1[1] a72[0] a72[1] a69 a161 a194 a91 a186 a109[0] a109[1][0]+20003 a109[1][1] a120 a65 a197"/>
    </vehicle>
    <vehicle id="97" depart="71.04">
        <route edges="b1[0] ba1[1] b1[1] a72[0] a72[1] a69 a161 a122 a3"/>
    </vehicle>
    <vehicle id="98" depart="72.05">
        <route edges="b1[0] ba1[1] b1[1] b38[0] b38[0]a b37 b26"/>
    </vehicle>
    <vehicle id="99" depart="72.12">
        <route edges="b65 b101 b34[0] b34[1][0] b36 b46 a181 a18 a69 a161 a122 a1b a1 a204a[0] a204b[0] a54"/>
    </vehicle>
    <vehicle id="100" depart="73.12">
        <route edges="b1[0] b25 b23 b17[0] b17[1] b11[0] b11[1][1] b64"/>
    </vehicle>
    <vehicle id="101" depart="74.06">
        <route edges="b34[0] b34[1][0] b36 b39[1][1][1] b45 b2[0]"/>
    </vehicle>
    <vehicle id="102" depart="74.67">
        <route edges="a78[0] a56a am1 a21b a103 a14"/>
    </vehicle>
    <vehicle id="103" depart="74.70">
        <route edges="a78[0] a56a am1 a21b a20"/>
    </vehicle>
    <vehicle id="104" depart="75.26">
        <route edges="b1[0] ba1[1] b1[1] b38[0] b38[0]a b37 b26 b26.-170"/>
    </vehicle>
    <vehicle id="105" depart="79.03">
        <route edges="b1[0] ba1[1] b1[1] a67 a80 a127 a77[1][0] a77[1][1]"/>
    </vehicle>
    <vehicle id="106" depart="79.34">
        <route edges="a78[0] a56a a56b a77bc a77cd a53cd a53[0] a53[1][0] a79 a68 a11 b38[0] b38[0]a b37 b26 b26.-170 b17[0] b29[0]"/>
    </vehicle>
    <vehicle id="107" depart="79.66">
        <route edges="a210 a43[0] a43[1] a201 a201c a204a[0] a204b[0] a204[1][0] a204[1][1]"/>
    </vehicle>
    <vehicle id="108" depart="79.70">
        <route edges="a203[0] a203[1] a203[1]b a202 a34 a113 a118 a119 a116 a46 a201 a4c"/>
    </vehicle>
    <vehicle id="109" depart="79.80">
        <route edges="b1[0] b25 b23 b17[0] b17[1] b8 b4[1][1][1]"/>
    </vehicle>
    <vehicle id="110" depart="80.97">
        <route edges="b22[0] b22[1] b25 b23 b17[0] b17[1] b11[0] b5[1][1][1] b16[0] b16[1]"/>
    </vehicle>
    <vehicle id="111" depart="82.45">
        <route edges="a159 a42 a153 a87[0] a20001+87[1][0] a87[1][1] am90 a171 a161 a122 a1b a1 a204a[0] a204b[0] a54"/>
    </vehicle>
    <vehicle id="112" depart="82.48">
        <route edges="a78[0] a56a a56b a77bc a77cd a53cd a53[0] a78[1][1] a189[0] a189[1][0]+20000 a189[1][1] a188 a87[0] a20001+87[1][0] a87[1][1] am90 a89[0] a20002+89[1][0] a89[1][1] a91 a186 a109[0] a109[1][0]+20003 a109[1][1] a120 a65 a200 a60"/>
    </vehicle>
    <vehicle id="113" depart="83.16">
        <route edges="b16[0] b16[1] b18 b20+19a ba1[1] b1[1] a67 a80 a127 a77[1][0] a77ab a77bc a77cd a53cd a82 a51 a219 a218 a38 a33 a10 a13"/>
    </vehicle>
    <vehicle id="114" depart="83.83">
        <route edges="a78[0] a56a a56b a77bc a77cd a53cd a53[0] a78[1][1] a189[0] a189[1][0]+20000 a189[1][1] a188 a87[0] a20001+87[1][0] a87[1][1] am90 a89[0] a20002+89[1][0] a89[1][1] a91 a186"/>
    </vehicle>
    <vehicle id="115" depart="83.96">
        <route edges="a20001+87[1][0] a87[1][1] a97 a42 a39 a35 a38 a15 a24 a22 a59 a53cd a53[0] a53[1][0] a79 a68 a11 b2[0] b2[1][0] b2[1][1][0] b2[1][1][1] b2[1][1][1]b"/>
    </vehicle>
    <vehicle id="116" depart="86.54">
        <route edges="b1[0] b25 b23 b17[0] b17[1] b8 b3[1] b3[1]b"/>
    </vehicle>
    <vehicle id="117" depart="86.80">
        <route edges="a78[0] a56a a56b a77bc a77cd a53cd a53[0] a53[1][0] a79 a68 a11 b38[0] b38[0]a b38[1][0] b38[1][1] b38[1][1]a"/>
    </vehicle>
    <vehicle id="118" depart="86.88">
        <route edges="a78[0] a56a a56b a77bc a77cd a53cd a82 a51 a219 a218 a36 a40 a41 a160 a61"/>
    </vehicle>
    <vehicle id="119" depart="87.04">
        <route edges="a78[0] a56a a56b a77bc a77cd a53cd a53[0] a53[1][0] a79 a68 a11 b38[0] b38[0]a b37 b26 b26.-170 b17[0]"/>
    </vehicle>
    <vehicle id="120" depart="88.19">
        <route edges="a21b a20 a219 a218 a38 a15 a24 a22 a59 a53cd a53[0] a53[1][0] a79 a68 a11 b2[0] b34[1][2] b36 b39[1][1][1]"/>
    </vehicle>
    <vehicle id="121" depart="90.55">
        <route edges="a125 b12 b56[0] b39[0] b39[1][0] b39[1][1][0] b39[1][1][1] b45"/>
    </vehicle>
    <vehicle id="122" depart="91.22">
        <route edges="a78[0] a56a a56b a77bc a77cd a53cd a53[0] a53[1][0] a79 a68 a11 b38[0] b38[0]a b37 b26 b26.-170 b15 b13[1]"/>
    </vehicle>
    <vehicle id="123" depart="91.89">
        <route edges="a195 a159 a42 a39 a35 a38 a15 a24 a22 a59 a53cd a53[0] a53[1][0] a79 a68 a11 b2[0] b34[1][2] b36"/>
    </vehicle>
    <vehicle id="124" depart="93.06">
        <route edges="b1[0] ba1[1] b1[1] b38[0] b38[0]a b37 b26"/>
    </vehicle>
    <vehicle id="125" depart="94.52">
        <route edges="a78[0] a56a a56b a77bc a77cd a53cd a53[0] a53[1][0] a79 a68 a11 b38[0] b38[0]a b46 a181 a18"/>
    </vehicle>
    <vehicle id="126" depart="96.65">
        <route edges="b52 b51 b56[0] b39[0] b39[1][0] b39[1][1][0] b39[1][1][1] b45 b2[0] b2[1][0] b2[1][1][0] b2[1][1][1]"/>
    </vehicle>
    <vehicle id="127" depart="96.67">
        <route edges="a125 b12 b56[0] b39[0] b39[1][0] b39[1][1][0] b46 a181 a18 a69 a161 a122 a3 a2 a202 a34 a134 a134b"/>
    </vehicle>
    <vehicle id="128" depart="97.15">
        <route edges="a203[1] a203[1]b a202 a34 a113 a209"/>
    </vehicle>
    <vehicle id="129" depart="97.83">
        <route edges="a78[0] a56a a56b a77bc a77cd a53cd a82 a51 a219 a218"/>
    </vehicle>
    <vehicle id="130" depart="97.93">
        <route edges="a203[0] b12 b56[0] b39[0] b39[1][0] b39[1][1][0] b46 a181 a18 a69 a161 a122 a3"/>
    </vehicle>
    <vehicle id="131" depart="98.53">
        <route edges="a78[0] a56a a56b a77bc a77cd a53cd a53[0] a53[1][0] a79 a68 a11 b38[0]"/>
    </vehicle>
    <vehicle id="132" depart="98.97">
        <route edges="b15 b14 b18 b20+19a ba1[1] b1[1] a72[0] a72[1] a69 a161 a122 a1b a1 a204a[0] a204b[0] a54"/>
    </vehicle>
    <vehicle id="133" depart="99.68">
        <route edges="ba1[1] b1[1] a72[0] a72[1] a69 a161 a122 a1b a1 a204a[0] a204b[0] a54"/>
    </vehicle>
    <vehicle id="134" depart="100.70">
        <route edges="a78[0] a56a a56b a77bc a77cd a53cd a53[0] a53[1][0] a79 a68 a11 b38[0] b38[0]a b38[1][0] b38[1][1] b38[1][1]a"/>
    </vehicle>
    <vehicle id="135" depart="101.17">
        <route edges="b1[0] ba1[1] b1[1] a72[0] a72[1] a69 a161 a194 a91 a186 a109[0] a109[1][0]+20003 a109[1][1] a120 a65 a200 a60"/>
    </vehicle>
    <vehicle id="136" depart="101.97">
        <route edges="a78[0] a56a a56b a77bc a77cd a53cd a82 a51 a219 a218 a38"/>
    </vehicle>
    <vehicle id="137" depart="102.54">
        <route edges="b1[0] b25 b23 b17[0] b17[1] b8 b10"/>
    </vehicle>
    <vehicle id="138" depart="102.94">
        <route edges="a203[0] b12 b56[0] b39[0] b39[1][0] b39[1][1][0] b39[1][1][1] b45 a67 a80 a127 a77[1][0] a77ab a77bc a77cd a53cd a53[0] a53[1][0] a79 a74"/>
    </vehicle>
    <vehicle id="139" depart="104.33">
        <route edges="b1[0] b25 b23 b17[0] b17[1] b11[0] b33"/>
    </vehicle>
    <vehicle id="140" depart="104.77">
        <route edges="a131 a119 a116 a46 a201 a201c a204a[0] a124 b12 b56[0] b39[0] b39[1][0] b98"/>
    </vehicle>
    <vehicle id="141" depart="105.34">
        <route edges="a204a[0] a124 b12 b56[0] b39[0] b39[1][0] b39[1][1][0] b46 a181 a18 a69 a161 a194 a91 a186"/>
    </vehicle>
    <vehicle id="142" depart="105.93">
        <route edges="b52 b51 b56[0] b39[0] b39[1][0] b39[1][1][0] b39[1][1][1] b45 b2[0] b2[1][0] b2[1][1][0] b2[1][1][1] b2[1][1][1]b"/>
    </vehicle>
    <vehicle id="143" depart="106.54">
        <route edges="b63[0] b63[1] b4[0] b28 b28a b16[1] b18 b20+19a ba1[1] b1[1] a72[0] a72[1] a69 a161 a122 a1b a1 a204a[0] a204b[0] a54"/>
    </vehicle>
    <vehicle id="144" depart="107.28">
        <route edges="a78[0] a56a a56b a77bc a77cd a53cd a53[0] a78[1][1] a189[0] a189[1][0]+20000 a189[1][1] a188 a87[0] a20001+87[1][0] a87[1][1] am90 a89[0] a20002+89[1][0] a89[1][1] a91 a186 a109[0] a109[1][0]+20003 a109[1][1] a120 a65 a57[0]"/>
    </vehicle>
    <vehicle id="145" depart="108.58">
        <route edges="a18 a17 a71 b2[0] b2[1][0] b2[1][1][0] b2[1][1][1] b2[1][1][1]b"/>
    </vehicle>
    <vehicle id="146" depart="110.05">
        <route edges="a78[0] a56a a56b a77bc a77cd a53cd a53[0] a53[1][0] a79 a68 a11 b38[0] b38[0]a b37 b26 b26.-170 b15 b13[1] b4[0]"/>
    </vehicle>
    <vehicle id="147" depart="110.37">
        <route edges="a203[0] a203[1] a203[1]b a202 a34 a113 a118 a65 a57[0] a57[1] a62 a159 a42 a39 a35 a38 a33"/>
    </vehicle>
    <vehicle id="148" depart="111.23">
        <route edges="a8 a13 a104 a24 a22 a59 a53cd a53[0] a53[1][0] a79 a68 a11 b2[0] b2[1][0] b2[1][1][0] b2[1][1][1] b2[1][1][1]b"/>
    </vehicle>
    <vehicle id="149" depart="111.82">
        <route edges="b1[0] ba1[1] b1[1] a67 a80 a127 a77[1][0] a77ab a77bc a77cd a53cd a53[0] a78[1][1] a189[0]"/>
    </vehicle>
    <vehicle id="150" depart="111.94">
        <route edges="b16[1] b18 b20+19a ba1[1] b1[1] a72[0] a72[1] a69 a161 a122 a1b a1 a204a[0] a124 b12 b50[0] b97"/>
    </vehicle>
    <vehicle id="151" depart="112.09">
        <route edges="b2[1][0] b24 b23 b15 b14 b18 b20+19a ba1[1] b1[1] a67 a80 a127 a77[1][0] a77ab a77bc a21a a21b a103 a16"/>
    </vehicle>
    <vehicle id="152" depart="112.58">
        <route edges="a78[0] a56a a56b a77bc a77cd a53cd a53[0] a78[1][1] a189[0] a189[1][0]+20000 a189[1][1] a188 a87[0] a20001+87[1][0] a87[1][1] am90 a89[0] a20002+89[1][0] a89[1][1] a91 a186 a109[0] a109[1][0]+20003 a109[1][1] a120 a65 a200 a60"/>
    </vehicle>
    <vehicle id="153" depart="112.76">
        <route edges="a191 a69 a161 a122 a1b a1 a204a[0] a204b[0] a204[1][0] a204[1][1]"/>
    </vehicle>
    <vehicle id="154" depart="113.69">
        <route edges="a57[0] a57[1] a62 a159 a42 a153 a87[0] a20001+87[1][0] a87[1][1] am90 a171 a161 a122 a1b a1 a204a[0] a204b[0] a54"/>
    </vehicle>
    <vehicle id="155" depart="114.44">
        <route edges="b1[0] ba1[1] b1[1] a72[0] a72[1] a69 a161 a122 a1b a1 a204a[0] a204b[0] a54"/>
    </vehicle>
    <vehicle id="156" depart="114.50">
        <route edges="b24 b23 b15 b14 b18 b20+19b b2[1][1][1]b"/>
    </vehicle>
    <vehicle id="157" depart="115.26">
        <route edges="b22[0] b22[1] ba1[1] b1[1] a72[0] a72[1] a69 a161 a122 a1b a1 a204a[0] a204b[0] a54"/>
    </vehicle>
    <vehicle id="158" depart="115.43">
        <route edges="b1[0] ba1[1] b1[1] b38[0] b38[0]a b38[1][0] b38[1][1] b38[1][1]a"/>
    </vehicle>
    <vehicle id="159" depart="115.67">
        <route edges="a131 a119 a116 a46 a201 a201c a204a[0] a124 b12 b50[0] b97"/>
    </vehicle>
    <vehicle id="160" depart="115.78">
        <route edges="a21b a20 a219 a218 a36 a40 a153 a87[0] a20001+87[1][0] a87[1][1] am90 a171 a161 a122 a1b a1 a204a[0] a204b[0] a54"/>
    </vehicle>
    <vehicle id="161" depart="116.44">
        <route edges="b1[0] ba1[1] b1[1] b38[0] b38[0]a b37 b34[1][1] b2[1][0] b2[1][1][0]"/>
    </vehicle>
    <vehicle id="162" depart="116.55">
        <route edges="a14 a9 a211 a45 a44 a36 a40 a153 a87[0] a20001+87[1][0] a87[1][1] am90 a171 a161 a122 a1b a1 a204a[0] a204b[0] a54"/>
    </vehicle>
    <vehicle id="163" depart="117.28">
        <route edges="a78[0] a56a a56b a77bc a77cd a53cd a82 a51 a219 a218 a36 a40 a41 a160 a61"/>
    </vehicle>
    <vehicle id="164" depart="117.37">
        <route edges="a78[0] a56a a56b a77bc a77cd a53cd a53[0] a53[1][0] a79 a68 a11 b38[0] b38[0]a b37 b26 b26.-170 b17[0] b29[0]"/>
    </vehicle>
    <vehicle id="165" depart="117.45">
        <route edges="a78[0] a56a a56b a77bc a77cd a53cd a53[0] a53[1][0] a79 a68 a11 b38[0] b38[0]a b37 b26 b26.-170 b15 b13[1] b4[0] b4[1][1][0]"/>
    </vehicle>
    <vehicle id="166" depart="118.47">
        <route edges="a78[0] a56a a56b a77bc a77cd a53cd a53[0] a53[1][0] a79 a68 a11 b38[0] b38[0]a b37 b26 b26.-170 b15"/>
    </vehicle>
    <vehicle id="167" depart="119.72">
        <route edges="b1[0] ba1[1]"/>
    </vehicle>
    <vehicle id="168" depart="119.87">
        <route edges="a1b a1 a204a[0] a124 b12 b56[0] b39[0] b39[1][0] b39[1][1][0] b39[1][1][1] b45 a67 a80 a127 a77[1][0] a77ab a77bc a77cd a53cd a82 a51 a219 a218 a36 a40 a153"/>
    </vehicle>
    <vehicle id="169" depart="120.99">
        <route edges="b1[0] ba1[1] b1[1] a67 a80 a127 a77[1][0] a77ab a77bc a77cd a53cd a53[0] a78[1][1] a189[0] a189[1][0]+20000 a189[1][1] a188 a87[0]"/>
    </vehicle>
    <vehicle id="170" depart="121.76">
        <route edges="a78[0] a56a a56b a77bc a77cd a53cd a53[0] a53[1][0] a79 a68 a11 b2[0] b2[1][0] b2[1][1][0] b2[1][1][1] b2[1][1][1]b"/>
    </vehicle>
    <vehicle id="171" depart="121.95">
        <route edges="b1[0] ba1[1] b1[1] b38[0] b38[0]a b38[1][0] b38[1][1] b38[1][1]a"/>
    </vehicle>
    <vehicle id="172" depart="122.30">
        <route edges="b1[0] ba1[1] b1[1] a67 a80 a127 a77[1][0] a77[1][1]"/>
    </vehicle>
    <vehicle id="173" depart="122.56">
        <route edges="a165 a31 a201 a201c a204a[0] a124 b12 b56[0] b39[0] b39[1][0] b39[1][1][0] b46 a181 a18 a17 a71 b38[0]"/>
    </vehicle>
    <vehicle id="174" depart="122.74">
        <route edges="a78[0] a56a a56b a77bc a77cd a53cd a53[0] a53[1][0] a79 a26"/>
    </vehicle>
    <vehicle id="175" depart="123.32">
        <route edges="b1[0] ba1[1] b1[1] b38[0] b38[0]a b38[1][0] b38[1][1] b39[1][0]"/>
    </vehicle>
    <vehicle id="176" depart="123.60">
        <route edges="b1[0] ba1[1] b1[1] a72[0] a72[1] a69 a161 a194 a91 a186 a109[0] a109[1][0]+20003 a109[1][1] a120 a65 a197"/>
    </vehicle>
    <vehicle id="177" depart="123.64">
        <route edges="a204[1][0] a125 b12 b56[0] b39[0] b39[1][0] b39[1][1][0] b39[1][1][1] b45 a67 a80 a127 a77[1][0] a77ab a77bc a77cd a53cd a82 a51"/>
    </vehicle>