<?xml version="1.0" encoding="UTF-8"?>

<!-- generated on 2024-09-05 12:45:40.895047 by routeSampler.py v1_19_0+0000-baa66a0f364
<configuration>
    <route-files value=".\sampleRoutes.rou.xml"/>
    <edgedata-files value=".\edgedata.xml"/>
    <output-file value="generatedRoutes.rou.xml"/>
    <total-count value="3000"/>
    <optimize value="full"/>
</configuration>
-->

<routes xmlns:xsi="http://www.w3.org/2001/XMLSchema-instance" xsi:noNamespaceSchemaLocation="http://sumo.dlr.de/xsd/routes_file.xsd">
<!-- begin="0.0" end="3600.0" -->
    <vehicle id="0" depart="0.11">
        <route edges="a131 a119 a116 a46 a201 a201c a204a[0] a204b[0] a54"/>
    </vehicle>
    <vehicle id="1" depart="0.82">
        <route edges="a131 a119 a116 a46 a201 a201c a204a[0] a204b[0] a54"/>
    </vehicle>
    <vehicle id="2" depart="2.15">
        <route edges="a131 a119 a116 a46 a201 a201c a204a[0] a204b[0] a54"/>
    </vehicle>
    <vehicle id="3" depart="2.35">
        <route edges="a78[0] a56a a56b a77bc a77cd a53cd a82 a51 a219 a218 a36 a40 a93 a28"/>
    </vehicle>
    <vehicle id="4" depart="3.40">
        <route edges="a131 a119 a116 a46 a201 a201c a204a[0] a204b[0] a54"/>
    </vehicle>
    <vehicle id="5" depart="4.00">
        <route edges="b1[0] ba1[1] b1[1] b38[0] b38[0]a b38[1][0] b38[1][1] b38[1][1]a b35[1][0] b35[1][1][0] b20000+35[1][1][1][0] b35[1][1][1][1] a203[1]"/>
    </vehicle>
    <vehicle id="6" depart="14.11">
        <route edges="a131 a119 a116 a46 a201 a201c a204a[0] a204b[0] a54"/>
    </vehicle>
    <vehicle id="7" depart="15.07">
        <route edges="a124 b12 b50[0] b50[1] b49[1] b55 b35[1][1][0] b20000+35[1][1][1][0] b35[1][1][1][1] am2 a54"/>
    </vehicle>
    <vehicle id="8" depart="21.77">
        <route edges="b20000+35[1][1][1][0] b35[1][1][1][1] a203[1] a203[1]b a202 a34 a134 a134b a133 a31 a201 a201c a204a[0] a204b[0] a204[1][0] a204[1][1]"/>
    </vehicle>
    <vehicle id="9" depart="22.26">
        <route edges="a131 a119 a116 a46 a201 a201c a204a[0] a204b[0] a54"/>
    </vehicle>
    <vehicle id="10" depart="22.96">
        <route edges="a131 a119 a116 a46 a201 a201c a204a[0] a204b[0] a54"/>
    </vehicle>
    <vehicle id="11" depart="23.27">
        <route edges="a131 a119 a116 a46 a201 a201c a204a[0] a204b[0] a54"/>
    </vehicle>
    <vehicle id="12" depart="24.76">
        <route edges="a131 a119 a116 a46 a201 a201c a204a[0] a204b[0] a54"/>
    </vehicle>
    <vehicle id="13" depart="25.14">
        <route edges="a131 a119 a116 a46 a201 a201c a204a[0] a204b[0] a54"/>
    </vehicle>
    <vehicle id="14" depart="25.53">
        <route edges="b20000+35[1][1][1][0] b35[1][1][1][1] a203[1] a203[1]b a202 a34 a134 a134b a133 a31 a201 a201c a204a[0] a204b[0] a204[1][0] a204[1][1]"/>
    </vehicle>
    <vehicle id="15" depart="26.47">
        <route edges="a78[0] a56a a56b a77bc a77cd a53cd a53[0] a53[1][0] a79 a68 a11 b38[0] b38[0]a b38[1][0] b38[1][1] b38[1][1]a b56[1][0] b56[1][1] b5[1][0]+66 b5[1][1][1] b16[0]"/>
    </vehicle>
    <vehicle id="16" depart="26.49">
        <route edges="a131 a119 a116 a46 a201 a201c a204a[0] a204b[0] a54"/>
    </vehicle>
    <vehicle id="17" depart="26.87">
        <route edges="b1[0] ba1[1] b1[1] b38[0] b38[0]a b38[1][0] b38[1][1] b38[1][1]a b35[1][0] b35[1][1][0] b20000+35[1][1][1][0] b35[1][1][1][1] a203[1]"/>
    </vehicle>
    <vehicle id="18" depart="30.58">
        <route edges="a131 a119 a116 a46 a201 a201c a204a[0] a204b[0] a54"/>
    </vehicle>
    <vehicle id="19" depart="31.03">
        <route edges="a131 a119 a116 a46 a201 a201c a204a[0] a204b[0] a54"/>
    </vehicle>
    <vehicle id="20" depart="32.71">
        <route edges="a131 a119 a116 a46 a201 a201c a204a[0] a204b[0] a54"/>
    </vehicle>
    <vehicle id="21" depart="32.75">
        <route edges="a124 b12 b50[0] b50[1] b49[1] b55 b35[1][1][0] b20000+35[1][1][1][0] b35[1][1][1][1] am2 a54"/>
    </vehicle>
    <vehicle id="22" depart="35.38">
        <route edges="a131 a119 a116 a46 a201 a201c a204a[0] a204b[0] a54"/>
    </vehicle>
    <vehicle id="23" depart="35.68">
        <route edges="a131 a119 a116 a46 a201 a201c a204a[0] a204b[0] a54"/>
    </vehicle>
    <vehicle id="24" depart="35.89">
        <route edges="a131 a119 a116 a46 a201 a201c a204a[0] a204b[0] a54"/>
    </vehicle>
    <vehicle id="25" depart="36.17">
        <route edges="a131 a119 a116 a46 a201 a201c a204a[0] a204b[0] a54"/>
    </vehicle>
    <vehicle id="26" depart="37.02">
        <route edges="a131 a119 a116 a46 a201 a201c a204a[0] a204b[0] a54"/>
    </vehicle>
    <vehicle id="27" depart="37.85">
        <route edges="a131 a119 a116 a46 a201 a201c a204a[0] a204b[0] a54"/>
    </vehicle>
    <vehicle id="28" depart="38.58">
        <route edges="a131 a119 a116 a46 a201 a201c a204a[0] a204b[0] a54"/>
    </vehicle>
    <vehicle id="29" depart="38.92">
        <route edges="b1[0] ba1[1] b1[1] b38[0] b38[0]a b38[1][0] b38[1][1] b38[1][1]a b35[1][0] b35[1][1][0] b20000+35[1][1][1][0] b35[1][1][1][1] a203[1]"/>
    </vehicle>
    <vehicle id="30" depart="40.69">
        <route edges="a131 a119 a116 a46 a201 a201c a204a[0] a204b[0] a54"/>
    </vehicle>
    <vehicle id="31" depart="43.21">
        <route edges="a131 a119 a116 a46 a201 a201c a204a[0] a204b[0] a54"/>
    </vehicle>
    <vehicle id="32" depart="46.43">
        <route edges="a131 a119 a116 a46 a201 a201c a204a[0] a204b[0] a54"/>
    </vehicle>
    <vehicle id="33" depart="47.62">
        <route edges="b1[0] ba1[1] b1[1] a72[0] a72[1] a69 a161 a122 a1b a1 a204a[0] a204b[0] a204[1][0] a204[1][1]"/>
    </vehicle>
    <vehicle id="34" depart="47.81">
        <route edges="a131 a119 a116 a46 a201 a201c a204a[0] a204b[0] a54"/>
    </vehicle>
    <vehicle id="35" depart="49.26">
        <route edges="a131 a119 a116 a46 a201 a201c a204a[0] a204b[0] a54"/>
    </vehicle>
    <vehicle id="36" depart="49.90">
        <route edges="a131 a119 a116 a46 a201 a201c a204a[0] a204b[0] a54"/>
    </vehicle>
    <vehicle id="37" depart="50.45">
        <route edges="a78[0] a56a a56b a77bc a77cd a53cd a53[0] a53[1][0] a79 a68 a11 b38[0] b38[0]a b38[1][0] b38[1][1] b38[1][1]a b56[1][0] b56[1][1] b5[1][0]+66 b5[1][1][1] b16[0]"/>
    </vehicle>
    <vehicle id="38" depart="51.11">
        <route edges="a131 a119 a116 a46 a201 a201c a204a[0] a204b[0] a54"/>
    </vehicle>
    <vehicle id="39" depart="57.70">
        <route edges="a78[0] a56a a56b a77bc a77cd a53cd a53[0] a78[1][1] a189[0] a189[1][0]+20000 a189[1][1] a191 a69 a161 a122 a1b a1 a204a[0] a204b[0] a54"/>
    </vehicle>
    <vehicle id="40" depart="58.32">
        <route edges="a131 a119 a116 a46 a201 a201c a204a[0] a204b[0] a54"/>
    </vehicle>
    <vehicle id="41" depart="58.48">
        <route edges="a131 a119 a116 a46 a201 a201c a204a[0] a204b[0] a54"/>
    </vehicle>
    <vehicle id="42" depart="59.73">
        <route edges="a78[0] a56a a56b a77bc a77cd a53cd a53[0] a53[1][0] a79 a68 a11 b2[0]"/>
    </vehicle>
    <vehicle id="43" depart="60.02">
        <route edges="a131 a119 a116 a46 a201 a201c a204a[0] a204b[0] a54"/>
    </vehicle>
    <vehicle id="44" depart="60.89">
        <route edges="a124 b12 b50[0] b50[1] b49[1] b55 b35[1][1][0] b20000+35[1][1][1][0] b35[1][1][1][1] am2 a54"/>
    </vehicle>
    <vehicle id="45" depart="61.09">
        <route edges="a78[0] a56a a56b a77bc a77cd a53cd a53[0] a53[1][0] a79 a68 a11 b38[0] b38[0]a b38[1][0] b38[1][1] b38[1][1]a b56[1][0] b56[1][1] b5[1][0]+66 b5[1][1][1] b16[0]"/>
    </vehicle>
    <vehicle id="46" depart="62.99">
        <route edges="a131 a119 a116 a46 a201 a201c a204a[0] a204b[0] a54"/>
    </vehicle>
    <vehicle id="47" depart="64.90">
        <route edges="b5[1][1][1] b16[0] b16[1] b27 b36 b46 a181 a18 a69 a161 a122 a1b a1 a204a[0] a204b[0] a204[1][0] a204[1][1]"/>
    </vehicle>
    <vehicle id="48" depart="65.09">
        <route edges="a78[0] a56a a56b a77bc a77cd a53cd a53[0] a53[1][0] a79 a68 a11 b2[0]"/>
    </vehicle>
    <vehicle id="49" depart="68.96">
        <route edges="a131 a119 a116 a46 a201 a201c a204a[0] a204b[0] a54"/>
    </vehicle>
    <vehicle id="50" depart="70.75">
        <route edges="a131 a119 a116 a46 a201 a201c a204a[0] a204b[0] a54"/>
    </vehicle>
    <vehicle id="51" depart="71.90">
        <route edges="a131 a119 a116 a46 a201 a201c a204a[0] a204b[0] a54"/>
    </vehicle>
    <vehicle id="52" depart="72.50">
        <route edges="a131 a119 a116 a46 a201 a201c a204a[0] a204b[0] a54"/>
    </vehicle>
    <vehicle id="53" depart="75.36">
        <route edges="a131 a119 a116 a46 a201 a201c a204a[0] a204b[0] a54"/>
    </vehicle>
    <vehicle id="54" depart="75.63">
        <route edges="a131 a119 a116 a46 a201 a201c a204a[0] a204b[0] a54"/>
    </vehicle>
    <vehicle id="55" depart="75.73">
        <route edges="a131 a119 a116 a46 a201 a201c a204a[0] a204b[0] a54"/>
    </vehicle>
    <vehicle id="56" depart="76.14">
        <route edges="b1[0] ba1[1] b1[1] a72[0] a72[1] a69 a161 a122 a1b a1 a204a[0] a204b[0] a204[1][0] a204[1][1]"/>
    </vehicle>
    <vehicle id="57" depart="78.65">
        <route edges="b16[1] b27 b34[1][1] b2[1][0] b24"/>
    </vehicle>
    <vehicle id="58" depart="79.13">
        <route edges="a131 a119 a116 a46 a201 a201c a204a[0] a204b[0] a54"/>
    </vehicle>
    <vehicle id="59" depart="79.44">
        <route edges="a131 a119 a116 a46 a201 a201c a204a[0] a204b[0] a54"/>
    </vehicle>
    <vehicle id="60" depart="81.23">
        <route edges="a131 a119 a116 a46 a201 a201c a204a[0] a204b[0] a54"/>
    </vehicle>
    <vehicle id="61" depart="85.35">
        <route edges="a124 b12 b50[0] b50[1] b49[1] b55 b35[1][1][0] b20000+35[1][1][1][0] b35[1][1][1][1] am2 a54"/>
    </vehicle>
    <vehicle id="62" depart="86.21">
        <route edges="a131 a119 a116 a46 a201 a201c a204a[0] a204b[0] a54"/>
    </vehicle>
    <vehicle id="63" depart="86.42">
        <route edges="a131 a119 a116 a46 a201 a201c a204a[0] a204b[0] a54"/>
    </vehicle>
    <vehicle id="64" depart="88.72">
        <route edges="a131 a119 a116 a46 a201 a201c a204a[0] a204b[0] a54"/>
    </vehicle>
    <vehicle id="65" depart="89.34">
        <route edges="a124 b12 b50[0] b50[1] b49[1] b55 b35[1][1][0] b20000+35[1][1][1][0] b35[1][1][1][1] am2 a54"/>
    </vehicle>
    <vehicle id="66" depart="89.90">
        <route edges="a55 a55b a204[1][1]"/>
    </vehicle>
    <vehicle id="67" depart="90.72">
        <route edges="a131 a119 a116 a46 a201 a201c a204a[0] a204b[0] a54"/>
    </vehicle>
    <vehicle id="68" depart="91.25">
        <route edges="a78[0] a56a a56b a77bc a77cd a53cd a53[0] a53[1][0] a79 a68 a11 b2[0]"/>
    </vehicle>
    <vehicle id="69" depart="92.48">
        <route edges="a131 a119 a116 a46 a201 a201c a204a[0] a204b[0] a54"/>
    </vehicle>
    <vehicle id="70" depart="92.77">
        <route edges="a131 a119 a116 a46 a201 a201c a204a[0] a204b[0] a54"/>
    </vehicle>
    <vehicle id="71" depart="93.02">
        <route edges="a78[0] a56a a56b a77bc a77cd a53cd a53[0] a78[1][1] a189[0] a189[1][0]+20000 a189[1][1] a191 a69 a161 a122 a1b a1 a204a[0] a204b[0] a54"/>
    </vehicle>
    <vehicle id="72" depart="95.79">
        <route edges="a55 a55b a204[1][1]"/>
    </vehicle>
    <vehicle id="73" depart="97.58">
        <route edges="a131 a119 a116 a46 a201 a201c a204a[0] a204b[0] a54"/>
    </vehicle>
    <vehicle id="74" depart="100.23">
        <route edges="a131 a119 a116 a46 a201 a201c a204a[0] a204b[0] a54"/>
    </vehicle>
    <vehicle id="75" depart="100.27">
        <route edges="a131 a119 a116 a46 a201 a201c a204a[0] a204b[0] a54"/>
    </vehicle>
    <vehicle id="76" depart="101.24">
        <route edges="a131 a119 a116 a46 a201 a201c a204a[0] a204b[0] a54"/>
    </vehicle>
    <vehicle id="77" depart="103.15">
        <route edges="a131 a119 a116 a46 a201 a201c a204a[0] a204b[0] a54"/>
    </vehicle>
    <vehicle id="78" depart="105.48">
        <route edges="a131 a119 a116 a46 a201 a201c a204a[0] a204b[0] a54"/>
    </vehicle>
    <vehicle id="79" depart="108.37">
        <route edges="a131 a119 a116 a46 a201 a201c a204a[0] a204b[0] a54"/>
    </vehicle>
    <vehicle id="80" depart="109.27">
        <route edges="a131 a119 a116 a46 a201 a201c a204a[0] a204b[0] a54"/>
    </vehicle>
    <vehicle id="81" depart="109.67">
        <route edges="a78[0] a56a a56b a77bc a77cd a53cd a53[0] a53[1][0] a79 a68 a11 b38[0] b38[0]a b38[1][0] b38[1][1] b38[1][1]a b56[1][0] b56[1][1] b5[1][0]+66 b5[1][1][1] b16[0]"/>
    </vehicle>
    <vehicle id="82" depart="116.80">
        <route edges="a131 a119 a116 a46 a201 a201c a204a[0] a204b[0] a54"/>
    </vehicle>
    <vehicle id="83" depart="116.89">
        <route edges="a131 a119 a116 a46 a201 a201c a204a[0] a204b[0] a54"/>
    </vehicle>
    <vehicle id="84" depart="116.95">
        <route edges="a131 a119 a116 a46 a201 a201c a204a[0] a204b[0] a54"/>
    </vehicle>
    <vehicle id="85" depart="117.57">
        <route edges="a131 a119 a116 a46 a201 a201c a204a[0] a204b[0] a54"/>
    </vehicle>
    <vehicle id="86" depart="120.32">
        <route edges="b20000+35[1][1][1][0] b35[1][1][1][1] a203[1] a203[1]b a202 a34 a134 a134b a133 a31 a201 a201c a204a[0] a204b[0] a204[1][0] a204[1][1]"/>
    </vehicle>
    <vehicle id="87" depart="123.76">
        <route edges="a131 a119 a116 a46 a201 a201c a204a[0] a204b[0] a54"/>
    </vehicle>
    <vehicle id="88" depart="123.95">
        <route edges="a131 a119 a116 a46 a201 a201c a204a[0] a204b[0] a54"/>
    </vehicle>
    <vehicle id="89" depart="124.82">
        <route edges="b20000+35[1][1][1][0] b35[1][1][1][1] a203[1] a203[1]b a202 a34 a134 a134b a133 a31 a201 a201c a204a[0] a204b[0] a204[1][0] a204[1][1]"/>
    </vehicle>
    <vehicle id="90" depart="125.68">
        <route edges="b71 b101 b35[0] b39[0] b39[1][0] b39[1][1][0] b39[1][1][1] b45 a67 a80 a127 a77[1][0] a77ab a77bc a77cd a53cd a53[0] a53[1][0] a79 a68"/>
    </vehicle>
    <vehicle id="91" depart="126.57">
        <route edges="a124 b12 b50[0] b50[1] b49[1] b55 b35[1][1][0] b20000+35[1][1][1][0] b35[1][1][1][1] am2 a54"/>
    </vehicle>
    <vehicle id="92" depart="128.12">
        <route edges="a131 a119 a116 a46 a201 a201c a204a[0] a204b[0] a54"/>
    </vehicle>
    <vehicle id="93" depart="131.26">
        <route edges="a131 a119 a116 a46 a201 a201c a204a[0] a204b[0] a54"/>
    </vehicle>
    <vehicle id="94" depart="132.17">
        <route edges="a131 a119 a116 a46 a201 a201c a204a[0] a204b[0] a54"/>
    </vehicle>
    <vehicle id="95" depart="135.10">
        <route edges="a131 a119 a116 a46 a201 a201c a204a[0] a204b[0] a54"/>
    </vehicle>
    <vehicle id="96" depart="135.24">
        <route edges="a131 a119 a116 a46 a201 a201c a204a[0] a204b[0] a54"/>
    </vehicle>
    <vehicle id="97" depart="138.24">
        <route edges="a131 a119 a116 a46 a201 a201c a204a[0] a204b[0] a54"/>
    </vehicle>
    <vehicle id="98" depart="140.25">
        <route edges="b1[0] ba1[1] b1[1] b38[0] b38[0]a b38[1][0] b38[1][1] b38[1][1]a b35[1][0] b35[1][1][0] b20000+35[1][1][1][0] b35[1][1][1][1] a203[1]"/>
    </vehicle>
    <vehicle id="99" depart="140.42">
        <route edges="a131 a119 a116 a46 a201 a201c a204a[0] a204b[0] a54"/>
    </vehicle>
    <vehicle id="100" depart="141.35">
        <route edges="a78[0] a56a a56b a77bc a77cd a53cd a53[0] a53[1][0] a79 a68 a11 b38[0] b38[0]a b38[1][0] b38[1][1] b38[1][1]a b56[1][0] b56[1][1] b5[1][0]+66 b5[1][1][1] b16[0]"/>
    </vehicle>
    <vehicle id="101" depart="141.37">
        <route edges="a131 a119 a116 a46 a201 a201c a204a[0] a204b[0] a54"/>
    </vehicle>
    <vehicle id="102" depart="141.70">
        <route edges="b1[0] ba1[1] b1[1] a72[0] a72[1] a69 a161 a122 a1b a1 a204a[0] a204b[0] a204[1][0] a204[1][1]"/>
    </vehicle>
    <vehicle id="103" depart="141.81">
        <route edges="a131 a119 a116 a46 a201 a201c a204a[0] a204b[0] a54"/>
    </vehicle>
    <vehicle id="104" depart="141.90">
        <route edges="b1[0] ba1[1] b1[1] b38[0] b38[0]a b38[1][0] b38[1][1] b38[1][1]a b35[1][0] b35[1][1][0] b20000+35[1][1][1][0] b35[1][1][1][1] a203[1]"/>
    </vehicle>
    <vehicle id="105" depart="143.27">
        <route edges="b20000+35[1][1][1][0] b35[1][1][1][1] a203[1] a203[1]b a202 a34 a134 a134b a133 a31 a201 a201c a204a[0] a204b[0] a204[1][0] a204[1][1]"/>
    </vehicle>
    <vehicle id="106" depart="143.32">
        <route edges="a131 a119 a116 a46 a201 a201c a204a[0] a204b[0] a54"/>
    </vehicle>
    <vehicle id="107" depart="143.72">
        <route edges="a131 a119 a116 a46 a201 a201c a204a[0] a204b[0] a54"/>
    </vehicle>
    <vehicle id="108" depart="143.81">
        <route edges="a131 a119 a116 a46 a201 a201c a204a[0] a204b[0] a54"/>
    </vehicle>
    <vehicle id="109" depart="144.21">
        <route edges="a131 a119 a116 a46 a201 a201c a204a[0] a204b[0] a54"/>
    </vehicle>
    <vehicle id="110" depart="144.50">
        <route edges="a131 a119 a116 a46 a201 a201c a204a[0] a204b[0] a54"/>
    </vehicle>
    <vehicle id="111" depart="144.93">
        <route edges="a78[0] a56a a56b a77bc a77cd a53cd a53[0] a53[1][0] a79 a68 a11 b2[0]"/>
    </vehicle>
    <vehicle id="112" depart="145.03">
        <route edges="a131 a119 a116 a46 a201 a201c a204a[0] a204b[0] a54"/>
    </vehicle>
    <vehicle id="113" depart="145.20">
        <route edges="a78[0] a56a a56b a77bc a77cd a53cd a82 a51 a219 a218 a36 a40 a93 a28"/>
    </vehicle>
    <vehicle id="114" depart="147.90">
        <route edges="a78[0] a56a a56b a77bc a77cd a53cd a53[0] a53[1][0] a53[1][1][0] a77[1][0] a77[1][1]"/>
    </vehicle>
    <vehicle id="115" depart="149.39">
        <route edges="a131 a119 a116 a46 a201 a201c a204a[0] a204b[0] a54"/>
    </vehicle>
    <vehicle id="116" depart="149.68">
        <route edges="a131 a119 a116 a46 a201 a201c a204a[0] a204b[0] a54"/>
    </vehicle>
    <vehicle id="117" depart="150.89">
        <route edges="a124 b12 b50[0] b50[1] b49[1] b55 b35[1][1][0] b20000+35[1][1][1][0] b35[1][1][1][1] am2 a54"/>
    </vehicle>
    <vehicle id="118" depart="155.16">
        <route edges="a124 b12 b50[0] b50[1] b49[1] b55 b35[1][1][0] b20000+35[1][1][1][0] b35[1][1][1][1] am2 a54"/>
    </vehicle>
    <vehicle id="119" depart="158.64">
        <route edges="a78[0] a56a a56b a77bc a77cd a53cd a53[0] a53[1][0] a79 a68 a11 b38[0] b38[0]a b38[1][0] b38[1][1] b38[1][1]a b56[1][0] b56[1][1] b5[1][0]+66 b5[1][1][1] b16[0]"/>
    </vehicle>
    <vehicle id="120" depart="160.52">
        <route edges="a131 a119 a116 a46 a201 a201c a204a[0] a204b[0] a54"/>
    </vehicle>
    <vehicle id="121" depart="161.50">
        <route edges="a131 a119 a116 a46 a201 a201c a204a[0] a204b[0] a54"/>
    </vehicle>
    <vehicle id="122" depart="161.99">
        <route edges="a124 b12 b50[0] b50[1] b49[1] b55 b35[1][1][0] b20000+35[1][1][1][0] b35[1][1][1][1] am2 a54"/>
    </vehicle>
    <vehicle id="123" depart="162.54">
        <route edges="a131 a119 a116 a46 a201 a201c a204a[0] a204b[0] a54"/>
    </vehicle>
    <vehicle id="124" depart="164.11">
        <route edges="a131 a119 a116 a46 a201 a201c a204a[0] a204b[0] a54"/>
    </vehicle>
    <vehicle id="125" depart="169.91">
        <route edges="b16[1] b27 b34[1][1] b2[1][0] b24"/>
    </vehicle>
    <vehicle id="126" depart="172.01">
        <route edges="a131 a119 a116 a46 a201 a201c a204a[0] a204b[0] a54"/>
    </vehicle>
    <vehicle id="127" depart="174.11">
        <route edges="a78[0] a56a a56b a77bc a77cd a53cd a53[0] a78[1][1] a189[0] a189[1][0]+20000 a189[1][1] a191 a69 a161 a122 a1b a1 a204a[0] a204b[0] a54"/>
    </vehicle>
    <vehicle id="128" depart="175.30">
        <route edges="a131 a119 a116 a46 a201 a201c a204a[0] a204b[0] a54"/>
    </vehicle>
    <vehicle id="129" depart="175.56">
        <route edges="a131 a119 a116 a46 a201 a201c a204a[0] a204b[0] a54"/>
    </vehicle>
    <vehicle id="130" depart="176.42">
        <route edges="a131 a119 a116 a46 a201 a201c a204a[0] a204b[0] a54"/>
    </vehicle>
    <vehicle id="131" depart="177.20">
        <route edges="a78[0] a56a a56b a77bc a77cd a53cd a53[0] a53[1][0] a79 a68 a11 b38[0] b38[0]a b38[1][0] b38[1][1] b38[1][1]a b56[1][0] b56[1][1] b5[1][0]+66 b5[1][1][1] b16[0]"/>
    </vehicle>
    <vehicle id="132" depart="177.46">
        <route edges="a131 a119 a116 a46 a201 a201c a204a[0] a204b[0] a54"/>
    </vehicle>
    <vehicle id="133" depart="177.51">
        <route edges="a124 b12 b50[0] b50[1] b49[1] b55 b35[1][1][0] b20000+35[1][1][1][0] b35[1][1][1][1] am2 a54"/>
    </vehicle>
    <vehicle id="134" depart="178.58">
        <route edges="a131 a119 a116 a46 a201 a201c a204a[0] a204b[0] a54"/>
    </vehicle>
    <vehicle id="135" depart="178.61">
        <route edges="a131 a119 a116 a46 a201 a201c a204a[0] a204b[0] a54"/>
    </vehicle>
    <vehicle id="136" depart="179.50">
        <route edges="a78[0] a56a a56b a77bc a77cd a53cd a53[0] a53[1][0] a53[1][1][0] a77[1][0] a77[1][1]"/>
    </vehicle>
    <vehicle id="137" depart="180.63">
        <route edges="a131 a119 a116 a46 a201 a201c a204a[0] a204b[0] a54"/>
    </vehicle>
    <vehicle id="138" depart="180.87">
        <route edges="a131 a119 a116 a46 a201 a201c a204a[0] a204b[0] a54"/>
    </vehicle>
    <vehicle id="139" depart="181.16">
        <route edges="b20000+35[1][1][1][0] b35[1][1][1][1] a203[1] a203[1]b a202 a34 a134 a134b a133 a31 a201 a201c a204a[0] a204b[0] a204[1][0] a204[1][1]"/>
    </vehicle>
    <vehicle id="140" depart="181.26">
        <route edges="b16[1] b27 b34[1][1] b2[1][0] b24"/>
    </vehicle>
    <vehicle id="141" depart="181.50">
        <route edges="a131 a119 a116 a46 a201 a201c a204a[0] a204b[0] a54"/>
    </vehicle>
    <vehicle id="142" depart="182.06">
        <route edges="a131 a119 a116 a46 a201 a201c a204a[0] a204b[0] a54"/>
    </vehicle>
    <vehicle id="143" depart="182.24">
        <route edges="a131 a119 a116 a46 a201 a201c a204a[0] a204b[0] a54"/>
    </vehicle>
    <vehicle id="144" depart="184.14">
        <route edges="a78[0] a56a a56b a77bc a77cd a53cd a53[0] a53[1][0] a79 a68 a11 b2[0]"/>
    </vehicle>
    <vehicle id="145" depart="184.20">
        <route edges="a131 a119 a116 a46 a201 a201c a204a[0] a204b[0] a54"/>
    </vehicle>
    <vehicle id="146" depart="184.41">
        <route edges="a131 a119 a116 a46 a201 a201c a204a[0] a204b[0] a54"/>
    </vehicle>
    <vehicle id="147" depart="184.55">
        <route edges="a131 a119 a116 a46 a201 a201c a204a[0] a204b[0] a54"/>
    </vehicle>
    <vehicle id="148" depart="184.66">
        <route edges="a131 a119 a116 a46 a201 a201c a204a[0] a204b[0] a54"/>
    </vehicle>
    <vehicle id="149" depart="185.97">
        <route edges="a131 a119 a116 a46 a201 a201c a204a[0] a204b[0] a54"/>
    </vehicle>
    <vehicle id="150" depart="187.29">
        <route edges="a131 a119 a116 a46 a201 a201c a204a[0] a204b[0] a54"/>
    </vehicle>
    <vehicle id="151" depart="188.20">
        <route edges="b20000+35[1][1][1][0] b35[1][1][1][1] a203[1] a203[1]b a202 a34 a134 a134b a133 a31 a201 a201c a204a[0] a204b[0] a204[1][0] a204[1][1]"/>
    </vehicle>
    <vehicle id="152" depart="188.40">
        <route edges="a131 a119 a116 a46 a201 a201c a204a[0] a204b[0] a54"/>
    </vehicle>
    <vehicle id="153" depart="189.76">
        <route edges="a78[0] a56a a56b a77bc a77cd a53cd a53[0] a53[1][0] a79 a68 a11 b2[0]"/>
    </vehicle>
    <vehicle id="154" depart="189.88">
        <route edges="b5[1][1][1] b16[0] b16[1] b27 b36 b46 a181 a18 a69 a161 a122 a1b a1 a204a[0] a204b[0] a204[1][0] a204[1][1]"/>
    </vehicle>
    <vehicle id="155" depart="189.95">
        <route edges="a131 a119 a116 a46 a201 a201c a204a[0] a204b[0] a54"/>
    </vehicle>
    <vehicle id="156" depart="190.17">
        <route edges="a131 a119 a116 a46 a201 a201c a204a[0] a204b[0] a54"/>
    </vehicle>
    <vehicle id="157" depart="190.18">
        <route edges="a131 a119 a116 a46 a201 a201c a204a[0] a204b[0] a54"/>
    </vehicle>
    <vehicle id="158" depart="190.57">
        <route edges="a131 a119 a116 a46 a201 a201c a204a[0] a204b[0] a54"/>
    </vehicle>
    <vehicle id="159" depart="193.09">
        <route edges="b14 b27 b36 b46 a181 a18 a69 a161 a122 a3 a2 a202 a34 a134 a134b a133 a31 a115"/>
    </vehicle>
    <vehicle id="160" depart="193.79">
        <route edges="a131 a119 a116 a46 a201 a201c a204a[0] a204b[0] a54"/>
    </vehicle>
    <vehicle id="161" depart="196.23">
        <route edges="b1[0] ba1[1] b1[1] b38[0] b38[0]a b38[1][0] b38[1][1] b38[1][1]a b35[1][0] b35[1][1][0] b20000+35[1][1][1][0] b35[1][1][1][1] a203[1]"/>
    </vehicle>
    <vehicle id="162" depart="196.44">
        <route edges="a124 b12 b50[0] b50[1] b49[1] b55 b35[1][1][0] b20000+35[1][1][1][0] b35[1][1][1][1] am2 a54"/>
    </vehicle>
    <vehicle id="163" depart="196.60">
        <route edges="a78[0] a56a a56b a77bc a77cd a53cd a53[0] a78[1][1] a189[0] a189[1][0]+20000 a189[1][1] a191 a69 a161 a122 a1b a1 a204a[0] a204b[0] a54"/>
    </vehicle>
    <vehicle id="164" depart="197.04">
        <route edges="a78[0] a56a a56b a77bc a77cd a53cd a53[0] a53[1][0] a79 a68 a11 b38[0] b38[0]a b38[1][0] b38[1][1] b38[1][1]a b56[1][0] b56[1][1] b5[1][0]+66 b5[1][1][1] b16[0]"/>
    </vehicle>
    <vehicle id="165" depart="197.88">
        <route edges="a78[0] a56a a56b a77bc a77cd a53cd a53[0] a53[1][0] a53[1][1][0] a77[1][0] a77[1][1]"/>
    </vehicle>
    <vehicle id="166" depart="198.37">
        <route edges="a131 a119 a116 a46 a201 a201c a204a[0] a204b[0] a54"/>
    </vehicle>
    <vehicle id="167" depart="199.30">
        <route edges="a131 a119 a116 a46 a201 a201c a204a[0] a204b[0] a54"/>
    </vehicle>
    <vehicle id="168" depart="200.18">
        <route edges="a131 a119 a116 a46 a201 a201c a204a[0] a204b[0] a54"/>
    </vehicle>
    <vehicle id="169" depart="200.67">
        <route edges="a131 a119 a116 a46 a201 a201c a204a[0] a204b[0] a54"/>
    </vehicle>
    <vehicle id="170" depart="201.33">
        <route edges="a131 a119 a116 a46 a201 a201c a204a[0] a204b[0] a54"/>
    </vehicle>
    <vehicle id="171" depart="202.37">
        <route edges="a131 a119 a116 a46 a201 a201c a204a[0] a204b[0] a54"/>
    </vehicle>
    <vehicle id="172" depart="202.41">
        <route edges="a131 a119 a116 a46 a201 a201c a204a[0] a204b[0] a54"/>
    </vehicle>
    <vehicle id="173" depart="203.85">
        <route edges="a131 a119 a116 a46 a201 a201c a204a[0] a204b[0] a54"/>
    </vehicle>
    <vehicle id="174" depart="204.05">
        <route edges="a131 a119 a116 a46 a201 a201c a204a[0] a204b[0] a54"/>
    </vehicle>
    <vehicle id="175" depart="204.77">
        <route edges="a131 a119 a116 a46 a201 a201c a204a[0] a204b[0] a54"/>
    </vehicle>
    <vehicle id="176" depart="205.21">
        <route edges="a131 a119 a116 a46 a201 a201c a204a[0] a204b[0] a54"/>
    </vehicle>
    <vehicle id="177" depart="205.30">
        <route edges="a131 a119 a116 a46 a201 a201c a204a[0] a204b[0] a54"/>
    </vehicle>
    <vehicle id="178" depart="206.61">
        <route edges="a131 a119 a116 a46 a201 a201c a204a[0] a204b[0] a54"/>
    </vehicle>
    <vehicle id="179" depart="209.66">
        <route edges="a131 a119 a116 a46 a201 a201c a204a[0] a204b[0] a54"/>
    </vehicle>
    <vehicle id="180" depart="210.45">
        <route edges="b16[1] b27 b34[1][1] b2[1][0] b24"/>
    </vehicle>
    <vehicle id="181" depart="210.84">
        <route edges="a131 a119 a116 a46 a201 a201c a204a[0] a204b[0] a54"/>
    </vehicle>
    <vehicle id="182" depart="214.51">
        <route edges="a78[0] a56a a56b a77bc a77cd a53cd a53[0] a53[1][0] a79 a68 a11 b38[0] b38[0]a b38[1][0] b38[1][1] b38[1][1]a b56[1][0] b56[1][1] b5[1][0]+66 b5[1][1][1] b16[0]"/>
    </vehicle>
    <vehicle id="183" depart="214.62">
        <route edges="a131 a119 a116 a46 a201 a201c a204a[0] a204b[0] a54"/>
    </vehicle>
    <vehicle id="184" depart="215.14">
        <route edges="a131 a119 a116 a46 a201 a201c a204a[0] a204b[0] a54"/>
    </vehicle>
    <vehicle id="185" depart="215.80">
        <route edges="b20000+35[1][1][1][0] b35[1][1][1][1] a203[1] a203[1]b a202 a34 a134 a134b a133 a31 a201 a201c a204a[0] a204b[0] a204[1][0] a204[1][1]"/>
    </vehicle>
    <vehicle id="186" depart="216.82">
        <route edges="a131 a119 a116 a46 a201 a201c a204a[0] a204b[0] a54"/>
    </vehicle>
    <vehicle id="187" depart="219.26">
        <route edges="a78[0] a56a a56b a77bc a77cd a53cd a53[0] a78[1][1] a189[0] a189[1][0]+20000 a189[1][1] a191 a69 a161 a122 a1b a1 a204a[0] a204b[0] a54"/>
    </vehicle>
    <vehicle id="188" depart="221.21">
        <route edges="b5[1][1][1] b16[0] b16[1] b27 b36 b46 a181 a18 a69 a161 a122 a1b a1 a204a[0] a204b[0] a204[1][0] a204[1][1]"/>
    </vehicle>
    <vehicle id="189" depart="222.51">
        <route edges="a131 a119 a116 a46 a201 a201c a204a[0] a204b[0] a54"/>
    </vehicle>
    <vehicle id="190" depart="223.01">
        <route edges="a131 a119 a116 a46 a201 a201c a204a[0] a204b[0] a54"/>
    </vehicle>
    <vehicle id="191" depart="223.33">
        <route edges="a131 a119 a116 a46 a201 a201c a204a[0] a204b[0] a54"/>
    </vehicle>
    <vehicle id="192" depart="223.35">
        <route edges="a131 a119 a116 a46 a201 a201c a204a[0] a204b[0] a54"/>
    </vehicle>
    <vehicle id="193" depart="224.75">
        <route edges="a131 a119 a116 a46 a201 a201c a204a[0] a204b[0] a54"/>
    </vehicle>
    <vehicle id="194" depart="226.47">
        <route edges="a55 a55b a204[1][1]"/>
    </vehicle>
    <vehicle id="195" depart="228.97">
        <route edges="a131 a119 a116 a46 a201 a201c a204a[0] a204b[0] a54"/>
    </vehicle>
    <vehicle id="196" depart="229.66">
        <route edges="a131 a119 a116 a46 a201 a201c a204a[0] a204b[0] a54"/>
    </vehicle>
    <vehicle id="197" depart="230.74">
        <route edges="a131 a119 a116 a46 a201 a201c a204a[0] a204b[0] a54"/>
    </vehicle>
    <vehicle id="198" depart="233.64">
        <route edges="b5[1][1][1] b16[0] b16[1] b27 b36 b46 a181 a18 a69 a161 a122 a1b a1 a204a[0] a204b[0] a204[1][0] a204[1][1]"/>
    </vehicle>